20

O     -1.33551551   -2.35954246    1.63266229
C     -0.21563873   -2.06674345    1.21307644
C      0.07489383   -1.78573543   -0.25962476
C      0.32598501   -0.31471621   -0.51452022
C     -0.30644307    0.69108523    0.12012848
C     -0.14215678    2.15074838   -0.13629393
O      1.00400265    2.58709936    0.57114215
H     -1.02116223    2.69601472    0.22226066
H     -0.01375570    2.37061946   -1.20044033
H      0.64631646   -1.97606340    1.89562816
O     -0.99514992   -2.21901564   -1.09238569
H      0.96083807   -2.37493244   -0.52081411
H     -1.79326973   -2.20372475   -0.53038373
O      7.80155241    0.06442983   -0.13814732
H     -1.05647179    0.45587391    0.87303125
H      7.20340008   -0.66729109   -0.35206153
O      1.31354003   -0.07263502   -1.45538951
H      7.29734896    0.60286126    0.49020885
H      1.57894622    0.86222395   -1.40045281
H      0.97504116    3.55944380    0.58237571
20

O      1.64529481    0.70885877   -2.13410315
C      1.97098532   -0.13960223   -1.30481917
C      1.57780789   -0.06980329    0.16981531
C     -2.04378200    0.65517403   -0.14551393
C     -1.37418216   -0.50119376   -0.23258495
C     -0.50958134   -1.10056416    0.83520242
O      0.83702072   -1.26052002    0.41538134
H     -0.89240009   -2.10764369    1.03692086
H     -0.54666908   -0.56695095    1.79018847
H      2.58034533   -1.01605854   -1.58524875
O      0.93459079    1.14015259    0.52309944
H      2.50617341   -0.12527329    0.74653772
H      0.62249003    1.51428771   -0.32845697
O      7.12924475   -0.02676673    0.10665056
H     -1.49281894   -1.09237452   -1.13759372
H      6.76663871    0.22047419   -0.75726483
O     -1.96754251    1.54485040    0.88899631
H      6.34490090   -0.19370745    0.65061427
H     -1.13549353    1.39450111    1.37815918
H     -2.71223864    1.02215986   -0.91598045
