20

O     -1.33551551   -2.35954246    1.63266229
C     -0.21563873   -2.06674345    1.21307644
C      0.07489383   -1.78573543   -0.25962476
C      0.32598501   -0.31471621   -0.51452022
C     -0.30644307    0.69108523    0.12012848
C     -0.14215678    2.15074838   -0.13629393
O      1.00400265    2.58709936    0.57114215
H     -1.02116223    2.69601472    0.22226066
H     -0.01375570    2.37061946   -1.20044033
H      0.64631646   -1.97606340    1.89562816
O     -0.99514992   -2.21901564   -1.09238569
H      0.96083807   -2.37493244   -0.52081411
H     -1.79326973   -2.20372475   -0.53038373
O      7.80155241    0.06442983   -0.13814732
H     -1.05647179    0.45587391    0.87303125
H      7.20340008   -0.66729109   -0.35206153
O      1.31354003   -0.07263502   -1.45538951
H      7.29734896    0.60286126    0.49020885
H      1.57894622    0.86222395   -1.40045281
H      0.97504116    3.55944380    0.58237571