20

O     -3.65610290    0.74747513   -1.13441692
C     -2.43198618    0.81851390   -1.22169050
C     -1.50364997   -0.21057149   -0.60042612
C     -0.11296412    0.38877199   -0.39134209
C      0.75421489   -0.46429707    0.54330298
C      2.14849970    0.17529837    0.75286570
O      2.03338211    1.42035261    1.44394963
H      2.65592829    0.33497849   -0.20462125
H      2.77657458   -0.48485951    1.36194401
H     -1.95727438    1.58488851   -1.85672516
O     -1.39635700   -1.34390258   -1.46067127
H     -1.95025058   -0.53554799    0.34459252
H     -2.30989060   -1.66539711   -1.59982089
O      0.09229436   -0.56535837    1.79924317
H     -0.21943780    1.39737104    0.02625891
H      0.62924432   -0.04838080    2.42839943
O      0.96667782   -1.77105022    0.03786470
H      0.38915765    0.47440571   -1.36415017
H      0.15432543   -2.02313195   -0.44288998
H      2.93761439    1.77044138    1.53833332