20

O      2.91826291   -0.79970751   -1.05347252
C      2.08569131   -0.02513470   -1.51926622
C      1.36423509    1.02526717   -0.70426149
C     -0.09355889    0.61166083   -0.45555811
C     -0.24089086   -0.63459374    0.42633794
C     -1.70962083   -1.03443638    0.61033059
O     -1.75078720   -2.22314277    1.40326008
H     -2.19147196   -1.23565687   -0.35099832
H     -2.26806533   -0.26352400    1.15098924
H      1.76498928   -0.11546057   -2.57093822
O      1.36582173    2.24199926   -1.46483099
H      1.90528813    1.22280800    0.22611259
H      0.62477254    2.77217303   -1.10591919
O      0.30043323   -0.33912139    1.72370925
H      0.32250164   -1.48079453    0.01842420
H      0.10408174   -1.13596208    2.25998518
O     -0.74495405    1.72972461    0.18720429
H     -0.60531858    0.46195691   -1.41370019
H     -0.46146620    1.68266028    1.12611526
H     -2.68994371   -2.46071555    1.50647664