20

O     -3.49141058   -0.52835494   -0.52763985
C     -2.76357324    0.39652377   -0.17530148
C     -1.46405637    0.18313171    0.58051656
C     -0.29004226    0.22640654   -0.41306911
C      1.06024936    0.30825740    0.33597602
C      2.24886572    0.36253496   -0.62821416
O      3.45003190    0.54201425    0.12541598
H      2.15839629    1.19687425   -1.32963721
H      2.35554554   -0.57002313   -1.19136774
H     -2.98959081    1.43990435   -0.45385955
O     -1.46247591   -1.05733904    1.28456948
H     -1.38459921    0.98695882    1.31972400
H     -1.77961381   -1.73157313    0.64784749
O      1.28802424   -0.80747918    1.21569195
H      1.07245264    1.20157933    0.97152910
H      0.41419057   -1.17851062    1.45977848
O     -0.29976186   -0.94963148   -1.23801324
H     -0.38389497    1.09457682   -1.07658996
H     -1.13306626   -0.98600730   -1.74307843
H      3.39432904   -0.12984340    0.83572167
20

O     -3.82836316    0.25316918    0.06729860
C     -2.68557386    0.50777582    0.44917576
C     -1.54210183   -0.48969727    0.34443887
C     -0.29588178    0.24938994   -0.15499313
C      0.99487160   -0.60252231   -0.05366439
C      2.81619550    0.79600284    0.54248188
O      2.08980383    0.19136006   -0.51767447
H      2.15598270    1.41569939    1.15636070
H      3.58751831    1.43640146    0.10671741
H     -2.45442726    1.45956091    0.95604054
O     -1.89497561   -1.58293787   -0.49808842
H     -1.36795733   -0.88105785    1.35239839
H     -2.85431213   -1.49240067   -0.67965190
O      0.94814134   -1.77752161   -0.84243564
H      1.15674005   -0.92011776    0.98395438
H      0.25373106   -1.63153119   -1.51225370
O     -0.51251072    0.68004491   -1.51284200
H     -0.15139653    1.16758224    0.42564683
H      0.28162551    1.18463486   -1.77483568
H      3.30289033    0.03616492    1.16192594
