20

O     -2.67437610    0.51123426    0.94326876
C     -2.19029183    0.73533801   -0.15262338
C     -0.77445953    1.12999173   -0.46927808
C      0.20193381    0.71733047    0.63077179
C      0.66372879   -0.76154476    0.57760062
C      1.74762482   -1.07360275   -0.47701542
O      2.90875496   -1.64560271    0.13256399
H      2.07304768   -0.18561633   -1.02419337
H      1.39244120   -1.80627573   -1.20922461
H     -0.47181195    0.69977679   -1.42987801
O     -2.96535996    0.72271516   -1.25481976
H     -0.76990525    2.22100352   -0.58451613
H     -3.86210310    0.51721007   -0.91258929
O     -0.44544431   -1.65332164    0.41344714
H      1.08040886   -0.98866948    1.56662363
H     -0.67314086   -1.70528850   -0.53113998
O      1.34562972    1.57851944    0.58137256
H     -0.26596768    0.87828881    1.60990561
H      1.06783645    2.46692951    0.86511728
H      2.61145427   -2.35841587    0.72460663
20

O     -0.90940418    0.28376213    0.72475658
C      0.00000221    0.00000176    0.00000206
C     -2.05141004   -1.92980929   -3.10675684
C     -3.42350706   -2.09265153   -2.46505270
C     -4.17517096   -0.76705345   -2.21364267
C     -4.66542302   -0.05618829   -3.49184116
O     -6.04281565    0.31553610   -3.37719793
H     -4.57714093   -0.68374005   -4.38200177
H     -4.10904790    0.86994208   -3.67037220
H     -2.11829494   -1.41047039   -4.06759602
O      0.90940197   -0.28376389   -0.72475864
H     -1.61135644   -2.91274105   -3.31134364
H     -1.36570158   -1.38177294   -2.45420552
O     -3.37678372    0.13392629   -1.43167363
H     -5.04829696   -1.00513114   -1.59460872
H     -2.66534582    0.47898448   -1.99986224
O     -4.21966488   -2.95053801   -3.27933870
H     -3.28441818   -2.59174759   -1.49820174
H     -3.77190545   -3.81425549   -3.33484416
H     -6.16897130    0.71238143   -2.49796060
