20

O      2.68877968    0.93938146   -0.61894920
C      1.77330923    1.74299999   -0.57306415
C      0.30425640    1.45071065   -0.46868422
C      0.00116878   -0.04898887   -0.59217965
C     -0.39615782   -0.68496472    0.75475106
C     -0.81742620   -2.15404124    0.59963140
O     -0.81081974   -2.79799768    1.87548870
H     -0.13806974   -2.70456019   -0.05636351
H     -1.83740893   -2.23653956    0.20742337
H     -0.03721630    1.85560303    0.48986703
O      2.01688492    3.06792728   -0.61780596
H     -0.19854839    2.00304484   -1.27129879
H      2.99241103    3.14496329   -0.67697508
O     -1.51522241    0.02109139    1.32225789
H      0.42651758   -0.60139729    1.47317492
H     -2.15375626    0.12924611    0.58834301
O     -1.10097097   -0.21157381   -1.50236390
H      0.84326005   -0.61209524   -1.01025949
H     -0.74423703   -0.09660580   -2.40310661
H     -1.29675389   -2.20620364    2.48011318
20

O      0.84233460   -2.29886573   -0.74348321
C     -0.13207576   -1.71190925   -0.29402228
C     -1.31685350   -0.35050426    1.48293139
C     -0.10275687   -0.42060239    0.55118471
C     -0.04667906    0.75874775   -0.45386152
C      1.35730566    0.98102385   -1.04787227
O      1.26270707    1.83333644   -2.19267751
H      1.83379469    0.05097198   -1.36408018
H      2.01596562    1.48512437   -0.33123026
H     -2.25022023   -0.20192277    0.93024410
O     -1.36616146   -2.19370642   -0.53807806
H     -1.20964633    0.45654616    2.21589621
H     -1.21502079   -3.00276716   -1.07300850
O     -0.47644182    2.00881500    0.12759095
H     -0.75689316    0.57739886   -1.26909739
H      0.27836982    2.38344398    0.61859550
O      1.06009302   -0.37966289    1.39219146
H     -1.41369870   -1.27891990    2.05990164
H      1.05787237   -1.19609139    1.92587765
H      0.57800480    2.49954379   -1.99700242
