20

O     -2.42199574    1.75474514    0.74550613
C     -1.55648996    1.03255813    1.24221044
C     -0.75213427   -0.11349185    0.52195078
C      0.00818707    0.34972215   -0.77153677
C      1.20900879   -0.51654012   -0.30103147
C      0.64526708   -0.42938340    1.12893482
O      6.56744393    0.13799785   -0.15943524
H      0.70607933   -1.36055386    1.70050071
H      1.07359740    0.37801710    1.73422587
H     -1.28373837    1.17454966    2.30172734
O     -1.58254704   -1.29234402    0.31490632
H      6.95472578    0.35857330    0.70098340
H     -2.07040588   -1.07859727   -0.50664151
O      2.51520107    0.05655487   -0.49894847
H      1.17869285   -1.54011098   -0.69730653
H      2.77208143   -0.20418175   -1.40106852
O     -0.60248881   -0.03611442   -2.02604167
H      0.22605374    1.42597842   -0.77665238
H     -0.06436871    0.39919220   -2.71073509
H      7.19216219   -0.49657115   -0.54154816
20

O     -2.61038678    1.50725693    0.89373665
C     -1.50819640    1.10102233    1.26095414
C     -0.30729284    0.77801245    0.35348211
C     -0.46857579   -0.41663962   -0.63554591
C      1.04161676   -0.75039720   -0.34421493
C      0.89111762    0.02310506    0.97832838
O      7.10360383    0.25755964   -0.18146835
H      0.63469120   -0.61709312    1.83069729
H      1.74060554    0.65254081    1.25802445
H     -1.32582062    0.95294482    2.33894591
O     -1.39948434   -1.42976173   -0.22727179
H      6.59645255    0.38851734    0.63376699
H     -2.20004203   -1.17339047   -0.72245957
O      1.98018994   -0.19100275   -1.29613234
H      1.24087611   -1.81889724   -0.20655945
H      2.85599627   -0.47365576   -0.97613136
O     -0.73096887   -0.05117337   -2.00197308
H      0.01683709    1.69232244   -0.16640603
H      0.14883714    0.21480640   -2.33747447
H      6.88212511   -0.64607698   -0.45229864
