20

O     -2.42199574    1.75474514    0.74550613
C     -1.55648996    1.03255813    1.24221044
C     -0.75213427   -0.11349185    0.52195078
C      0.00818707    0.34972215   -0.77153677
C      1.20900879   -0.51654012   -0.30103147
C      0.64526708   -0.42938340    1.12893482
O      6.56744393    0.13799785   -0.15943524
H      0.70607933   -1.36055386    1.70050071
H      1.07359740    0.37801710    1.73422587
H     -1.28373837    1.17454966    2.30172734
O     -1.58254704   -1.29234402    0.31490632
H      6.95472578    0.35857330    0.70098340
H     -2.07040588   -1.07859727   -0.50664151
O      2.51520107    0.05655487   -0.49894847
H      1.17869285   -1.54011098   -0.69730653
H      2.77208143   -0.20418175   -1.40106852
O     -0.60248881   -0.03611442   -2.02604167
H      0.22605374    1.42597842   -0.77665238
H     -0.06436871    0.39919220   -2.71073509
H      7.19216219   -0.49657115   -0.54154816