20

O     -2.09820307    1.93721542    1.51603893
C     -1.64079896    0.80898395    1.40606557
C     -0.20869799    0.42517213    1.62245771
C      0.42929344   -0.49407688    0.57499483
C     -0.16925522   -0.46987035   -0.86015929
C      0.86776314   -0.74095772   -1.96120646
O      1.73396504    0.39611767   -2.07362539
H      0.37175101   -0.85265525   -2.93005303
H      1.46855324   -1.63374817   -1.76481146
H      0.36872402    1.35649628    1.68977332
O     -2.45113239   -0.23658825    1.16667878
H     -0.13236366   -0.03909786    2.61369199
H     -3.30862016    0.20348141    0.97756614
O     -0.77226713    0.79657446   -1.15252425
H     -0.96176588   -1.22545098   -0.91409371
H     -0.07750758    1.33329690   -1.58619276
O      1.83719293   -0.16555329    0.52588081
H      0.38713748   -1.53294224    0.92671303
H      2.20688218   -0.35022339    1.40984897
H      2.14934956    0.48382617   -1.18704374
20

O     -1.20470989   -0.30446033    0.97802718
C     -0.27171819    0.06898348    0.30129030
C     -0.36612992    2.10840209    3.12580773
C     -0.19963861    3.28343823    4.04884749
C      0.67294320    3.16184817    2.82541362
C      0.55539340    4.11522098    1.67842185
O     -0.78920460    4.25423461    1.24122549
H      1.15094420    3.76062108    0.83188307
H      0.92992556    5.10278815    1.96666823
H     -1.25379842    2.05835932    2.50573876
O      0.28819346   -0.66231751   -0.66494916
H     -0.01921009    1.14029159    3.46753081
H     -0.24103632   -1.48798553   -0.64093955
O      0.37442074    1.22982086    0.36154152
H      1.71190788    2.89869571    2.99367582
H      1.05485019    1.15595903   -0.33497030
O     -1.24737549    4.26355277    3.99025384
H      0.27749840    3.10967042    5.00877459
H     -1.84535541    4.17526046    4.75494272
H     -1.29490448    4.46201332    2.05290697
