20

O     -1.20470989   -0.30446033    0.97802718
C     -0.27171819    0.06898348    0.30129030
C     -0.36612992    2.10840209    3.12580773
C     -0.19963861    3.28343823    4.04884749
C      0.67294320    3.16184817    2.82541362
C      0.55539340    4.11522098    1.67842185
O     -0.78920460    4.25423461    1.24122549
H      1.15094420    3.76062108    0.83188307
H      0.92992556    5.10278815    1.96666823
H     -1.25379842    2.05835932    2.50573876
O      0.28819346   -0.66231751   -0.66494916
H     -0.01921009    1.14029159    3.46753081
H     -0.24103632   -1.48798553   -0.64093955
O      0.37442074    1.22982086    0.36154152
H      1.71190788    2.89869571    2.99367582
H      1.05485019    1.15595903   -0.33497030
O     -1.24737549    4.26355277    3.99025384
H      0.27749840    3.10967042    5.00877459
H     -1.84535541    4.17526046    4.75494272
H     -1.29490448    4.46201332    2.05290697