20

O     -2.09820307    1.93721542    1.51603893
C     -1.64079896    0.80898395    1.40606557
C     -0.20869799    0.42517213    1.62245771
C      0.42929344   -0.49407688    0.57499483
C     -0.16925522   -0.46987035   -0.86015929
C      0.86776314   -0.74095772   -1.96120646
O      1.73396504    0.39611767   -2.07362539
H      0.37175101   -0.85265525   -2.93005303
H      1.46855324   -1.63374817   -1.76481146
H      0.36872402    1.35649628    1.68977332
O     -2.45113239   -0.23658825    1.16667878
H     -0.13236366   -0.03909786    2.61369199
H     -3.30862016    0.20348141    0.97756614
O     -0.77226713    0.79657446   -1.15252425
H     -0.96176588   -1.22545098   -0.91409371
H     -0.07750758    1.33329690   -1.58619276
O      1.83719293   -0.16555329    0.52588081
H      0.38713748   -1.53294224    0.92671303
H      2.20688218   -0.35022339    1.40984897
H      2.14934956    0.48382617   -1.18704374