20

O     -1.54777558   -1.36430319   -1.64726838
C     -1.65027655   -1.25360524   -0.42996417
C     -1.65861404    0.06982149    0.30633788
C     -0.30189250    0.82562842    0.23868309
C      0.94087400   -0.05929174    0.43622611
C      1.62208456   -0.50537734   -0.85274502
O      2.66859469   -1.41124255   -0.52163412
H      2.07296659    0.34883155   -1.36822827
H      0.93733522   -1.00802595   -1.53689727
H     -1.72236763   -2.15307920    0.20757705
O     -2.00982984   -0.20547505    1.67591275
H     -2.46652309    0.68236832   -0.10816264
H     -1.42466555    0.35389171    2.22793589
O     -0.21082599    1.63510033   -0.91388112
H      0.69828691   -0.93072162    1.05884104
H      0.66607027    2.05542754   -0.88639027
O     -0.31956429    1.76423219    1.32392221
H      1.68960060    0.48158205    1.03207586
H     -1.05694126    2.36884595    1.11841329
H      3.07346346   -1.69460767   -1.36075390
20

O     -1.06260723    1.89509929    1.01650612
C     -1.20379794    0.71042771    0.72657903
C     -0.07397412   -0.28830905    0.63932026
C      1.01499050    0.18330405   -0.30850621
C      4.01092312   -1.82954710   -1.41703888
C      5.14152405   -2.79471191   -1.12681997
O      5.96279174   -2.93981582   -2.27633394
H      4.75494222   -3.77875564   -0.84485785
H      5.76342402   -2.42085200   -0.30827882
H     -2.20931139    0.31018012    0.51101626
O     -0.59302122   -1.55753833    0.22976284
H      0.35286883   -0.42852212    1.63649365
H     -0.58077511   -1.54932364   -0.74910405
O      1.97796692    0.88542310   -0.05433196
H      4.40525460   -0.85534164   -1.72417630
H      3.37864266   -1.69319231   -0.53527941
O      0.81077240   -0.26884796   -1.57233660
H      3.39097884   -2.19639830   -2.24169267
H      1.56688836    0.10810681   -2.07539933
H      5.40346456   -3.28045088   -2.99515286
