20

O     -1.06260723    1.89509929    1.01650612
C     -1.20379794    0.71042771    0.72657903
C     -0.07397412   -0.28830905    0.63932026
C      1.01499050    0.18330405   -0.30850621
C      4.01092312   -1.82954710   -1.41703888
C      5.14152405   -2.79471191   -1.12681997
O      5.96279174   -2.93981582   -2.27633394
H      4.75494222   -3.77875564   -0.84485785
H      5.76342402   -2.42085200   -0.30827882
H     -2.20931139    0.31018012    0.51101626
O     -0.59302122   -1.55753833    0.22976284
H      0.35286883   -0.42852212    1.63649365
H     -0.58077511   -1.54932364   -0.74910405
O      1.97796692    0.88542310   -0.05433196
H      4.40525460   -0.85534164   -1.72417630
H      3.37864266   -1.69319231   -0.53527941
O      0.81077240   -0.26884796   -1.57233660
H      3.39097884   -2.19639830   -2.24169267
H      1.56688836    0.10810681   -2.07539933
H      5.40346456   -3.28045088   -2.99515286