17

Ni     -0.52660079    0.01560416    0.24873234
Ni     -1.97250989   -0.58919454   -0.70992535
Ni      0.04966684    0.37023807   -1.45868811
Ni     -2.15474077   -0.13776374    1.08106354
Ni      0.16132911   -1.47318305    1.08119754
Ni     -3.34275178    0.54512128   -0.17210311
H      2.40463968   -2.91540939   -1.33266469
H     -0.39990726   -3.28936701   -1.02911796
O      2.45683772   -0.58724521   -0.05130984
C      1.99712865    0.55931748   -0.87985713
C      1.40652630    1.60639711   -0.06309596
C      0.66283653    0.69864633    0.81365855
C      1.27542758   -1.15869004    0.04182993
C      1.46859659   -2.85269602   -0.69686950
O      0.38116467   -3.23675386   -1.54911514
H      1.61708864   -3.74108916    0.00275382
H      0.87626364    2.34148124   -0.73676492