20

O      2.76015825    2.20342161    1.79455742
C      1.77879193    1.46393271    1.77309048
C      0.91650623    1.31142185    0.52962312
C     -0.04813684    0.10959052    0.62804661
C     -0.52402893   -0.40287736   -0.74677449
C     -1.78972230   -1.26688097   -0.63015415
O     -2.74278394   -0.82896463   -1.60103327
H     -2.26234395   -1.18174905    0.35233933
H     -1.57659948   -2.32157611   -0.83462417
H      1.46694129    0.90724662    2.67330013
O      1.77304878    1.26178442   -0.60952123
H      0.31510757    2.22320319    0.43448606
H      2.46068556    1.94194050   -0.46146092
O      0.52226534   -1.24162789   -1.28238147
H     -0.68682093    0.43732415   -1.43227065
H      0.45424524   -1.17709234   -2.25220293
O      0.56251828   -0.99150668    1.32008164
H     -0.90275644    0.43188450    1.23578982
H      1.04727247   -1.47774831    0.61538794
H     -3.52434812   -1.40172675   -1.50627928