20

O      3.17716926   -2.38173347   -0.20894054
C      2.52828795   -1.41268785   -0.59859661
C      1.76680408   -0.47674513    0.32075359
C      0.23759846   -0.72003005    0.24717672
C     -0.57533351    0.57682591    0.38752851
C     -2.07867774    0.33049629    0.53981846
O     -2.72766043    1.60618687    0.52303587
H     -2.30383144   -0.17271706    1.48434561
H     -2.48086928   -0.24983147   -0.29617597
H      2.44538513   -1.18615084   -1.67621312
O      2.15260929    0.85782558   -0.02068302
H      2.10933045   -0.64294854    1.34814567
H      1.52494198    1.19213901   -0.69456516
O     -0.37542309    1.33586619   -0.83257490
H     -0.21517066    1.19285735    1.21894805
H     -1.06820651    2.03223638   -0.79394484
O     -0.13042642   -1.31472330   -1.01213069
H     -0.03776619   -1.43875598    1.02770310
H     -0.27174523   -0.57063026   -1.63369063
H     -3.67701611    1.44252032    0.67005993
20

O     -1.15136989    2.93390629    1.90447359
C     -0.97392286    1.88900672    1.30112322
C     -0.86398469   -1.04931756    1.48816928
C      0.23249261   -0.17022256    0.85846906
C      0.31561038   -0.27272109   -0.67486935
C      1.49296971    0.50840178   -1.26725731
O      1.60140964    0.16750437   -2.65440553
H      2.44003868    0.26783270   -0.77440412
H      1.32194347    1.58744660   -1.21890549
H     -1.74952332    1.41947058    0.68055381
O     -0.93328028   -2.33403964    0.88309700
H     -0.63881871   -1.18769171    2.55156398
H     -1.49835608   -2.23971447    0.09236705
O     -0.90229010    0.17211992   -1.28702860
H      0.42950615   -1.32365154   -0.96575968
H     -0.68490786    0.29543143   -2.23579083
O      0.18464648    1.19183707    1.34715922
H      1.18732810   -0.56124301    1.23325109
H     -1.85884892   -0.59733742    1.44615318
H      2.04935749   -0.69701849   -2.70795958
