20

O     -2.06276471    0.92788773    2.43786828
C     -1.56758528    0.99067628    1.31221772
C     -0.73483697   -0.11894040    0.55418477
C     -0.04596599    0.37184420   -0.76945698
C      1.19610591   -0.46439663   -0.35285170
C      0.70383919   -0.35154156    1.10404962
O      7.17612563    0.10176986   -0.35510899
H      0.83516231   -1.25843235    1.70187946
H      1.12160624    0.49610671    1.65983247
H     -1.69867899    1.92056062    0.73315703
O     -1.49968680   -1.34844889    0.37828630
H      6.29327293    0.28619522   -0.00082182
H     -1.98924622   -1.20461480   -0.45457175
O      2.47337980    0.13581962   -0.63949476
H      1.16465632   -1.49704301   -0.72497948
H      2.77752565   -0.28684122   -1.46197754
O     -0.71685025   -0.01496298   -1.99125002
H      0.15131247    1.45184053   -0.78261696
H     -0.10797266    0.25048615   -2.70427648
H      7.61606099   -0.38796507    0.35593080