20

O     -2.80811369    0.98514827    1.47376395
C     -1.60121832    0.98586782    1.22792991
C     -0.77182613   -0.12508620    0.46772145
C      0.05338316    0.42247205   -0.75190268
C      1.20306151   -0.52507947   -0.30765112
C      0.60038649   -0.48638578    1.11121319
O      7.25262596    0.10176986   -0.35510899
H      0.62841999   -1.44147322    1.64467142
H      1.01985856    0.28850278    1.76316896
H     -0.99712135    1.85382687    1.54416373
O     -1.58141514   -1.29689106    0.15772026
H      6.36977326    0.28619522   -0.00082182
H     -2.26355934   -0.95396093   -0.45118635
O      2.53578266    0.00473790   -0.43934678
H      1.13915646   -1.52263902   -0.76219924
H      2.86963655   -0.35230559   -1.28139578
O     -0.51353435    0.19327343   -2.06108168
H      0.31485967    1.48432490   -0.64859987
H      0.17224325    0.48566726   -2.68698938
H      7.69256131   -0.38796507    0.35593080
20

O     -1.81502595    2.26100748    0.77957003
C     -0.67453518    1.81410871    0.63926698
C     -0.72839924   -0.69360684   -0.26439240
C     -0.21909033    0.77447723   -0.40843823
C      1.21818219    0.20069229   -0.28004122
C      0.60898539   -1.00828476    0.45115815
O      7.09118517    0.25755964   -0.18146835
H      1.06201357   -1.97176592    0.20045955
H      0.56938827   -0.91367968    1.54260906
H      0.12747789    2.20598162    1.28659989
O     -1.89231263   -0.89867320    0.53846882
H      6.58403390    0.38851734    0.63376699
H     -1.98728899   -1.86623879    0.56493121
O      2.16882194    0.98112268    0.46612933
H      1.64249497   -0.06771085   -1.25693686
H      2.97637673    0.43622762    0.49933612
O     -0.90580780   -1.39150528   -1.50717493
H     -0.39799764    1.17913278   -1.41469972
H     -1.75328320   -1.04128509   -1.83684580
H      6.86970646   -0.64607698   -0.45229864
