20

O     -1.81502595    2.26100748    0.77957003
C     -0.67453518    1.81410871    0.63926698
C     -0.72839924   -0.69360684   -0.26439240
C     -0.21909033    0.77447723   -0.40843823
C      1.21818219    0.20069229   -0.28004122
C      0.60898539   -1.00828476    0.45115815
O      7.09118517    0.25755964   -0.18146835
H      1.06201357   -1.97176592    0.20045955
H      0.56938827   -0.91367968    1.54260906
H      0.12747789    2.20598162    1.28659989
O     -1.89231263   -0.89867320    0.53846882
H      6.58403390    0.38851734    0.63376699
H     -1.98728899   -1.86623879    0.56493121
O      2.16882194    0.98112268    0.46612933
H      1.64249497   -0.06771085   -1.25693686
H      2.97637673    0.43622762    0.49933612
O     -0.90580780   -1.39150528   -1.50717493
H     -0.39799764    1.17913278   -1.41469972
H     -1.75328320   -1.04128509   -1.83684580
H      6.86970646   -0.64607698   -0.45229864