20

O     -3.20387283    0.22104453    1.96485773
C     -2.54066743    0.53242643    0.97411977
C     -1.02691237    0.66440616    1.02647912
C     -0.39256614    0.04052277   -0.24001852
C      1.13821575   -0.01406532   -0.11971747
C      1.83276644   -0.54107754   -1.37029391
O      3.21540818   -0.75430320   -1.10462942
H      1.75062030    0.16759149   -2.20025954
H      1.40918796   -1.49697113   -1.69194020
H     -3.02856017    0.79860810    0.02195183
O     -0.54757308    0.01690501    2.20949205
H     -0.79481814    1.73379188    1.08634423
H     -1.21403446    0.19939470    2.90417754
O     -0.88056098   -1.27703286   -0.44241087
H      1.42789383   -0.65688178    0.72146737
H     -0.84082811   -1.71819652    0.42958836
O     -0.78388491    0.80643925   -1.36623756
H      1.53568119    0.98511233    0.09899541
H     -0.64732777    0.21278328   -2.12640609
H      3.59183272    0.07950241   -0.77555984
20

O     -3.45361177    0.31825457    1.83680714
C     -2.23855551    0.40151985    1.99630363
C     -1.29359532   -0.78683756    1.93139251
C     -0.00570958   -0.02835576    0.05878983
C      0.86932688   -0.60950202   -1.04697132
C      1.64159066    0.45323526   -1.81480088
O      2.39110874   -0.15643993   -2.86175492
H      2.33652483    0.99895597   -1.16878235
H      0.96340306    1.17724673   -2.27631810
H     -1.75518778    1.38144865    2.14688035
O     -0.70954453   -1.08695948    0.67861267
H     -0.51495212   -0.65331138    2.69059426
H     -1.86779051   -1.66889804    2.23646291
O     -0.93475846    0.88591308   -0.46512588
H      0.25674510   -1.18800402   -1.75061472
H     -1.57849733    0.32475209   -0.93592530
O      0.78220943    0.68986847    0.97335783
H      1.58023881   -1.32937956   -0.62018921
H      0.46594086    1.60081267    0.84089664
H      3.06511453   -0.72431958   -2.44961506
