20

O     -3.20387283    0.22104453    1.96485773
C     -2.54066743    0.53242643    0.97411977
C     -1.02691237    0.66440616    1.02647912
C     -0.39256614    0.04052277   -0.24001852
C      1.13821575   -0.01406532   -0.11971747
C      1.83276644   -0.54107754   -1.37029391
O      3.21540818   -0.75430320   -1.10462942
H      1.75062030    0.16759149   -2.20025954
H      1.40918796   -1.49697113   -1.69194020
H     -3.02856017    0.79860810    0.02195183
O     -0.54757308    0.01690501    2.20949205
H     -0.79481814    1.73379188    1.08634423
H     -1.21403446    0.19939470    2.90417754
O     -0.88056098   -1.27703286   -0.44241087
H      1.42789383   -0.65688178    0.72146737
H     -0.84082811   -1.71819652    0.42958836
O     -0.78388491    0.80643925   -1.36623756
H      1.53568119    0.98511233    0.09899541
H     -0.64732777    0.21278328   -2.12640609
H      3.59183272    0.07950241   -0.77555984