20

O     -1.43762624    1.35429375    2.48366676
C     -1.57156288    0.97398494    1.32060631
C     -0.74144471   -0.13067685    0.56065287
C     -0.04382967    0.38642978   -0.74712419
C      1.19729266   -0.45706925   -0.34471919
C      0.69183849   -0.39779438    1.10897835
O      4.88455923   -3.58655311    2.38699710
H      0.80983669   -1.32931265    1.67086771
H      1.11635770    0.42133738    1.70094898
H     -2.34398982    1.44846207    0.69149648
O     -1.53125582   -1.33877504    0.34821021
H      4.48258372   -3.04256238    3.08086364
H     -1.86123265   -1.24417545   -0.56794898
O      2.47624170    0.15294315   -0.60059300
H      1.17289609   -1.47680572   -0.75135006
H      2.74979139   -0.17585905   -1.47456253
O     -0.71024002    0.01415353   -1.97723041
H      0.14554761    1.46778371   -0.73762398
H     -0.11862050    0.33108010   -2.68427533
H      5.52605695   -4.13568553    2.86228150
20

O     -1.87278832    2.55852968    0.61667527
C     -1.73548364    1.34579053    0.73420509
C     -0.39497694    0.59062646    0.66574307
C     -0.43987455   -0.32779312   -0.57505688
C      0.77372733   -1.26598818   -0.81115288
C      0.72968843    1.62808664    0.64143654
O      1.99010994   -0.88982836   -0.22343576
H      0.64225551    2.31047027    1.49595312
H      0.69593040    2.23258025   -0.27210175
H     -2.62625675    0.70795487    0.87757297
O     -0.27169615   -0.21128079    1.84868639
H      1.72369397    1.18744612    0.73175637
H     -0.97268635   -0.88982652    1.79048398
O      1.03069328   -1.35936853   -2.20124276
H      0.53518884   -2.28600843   -0.48912067
H      1.99968439   -1.25295630   -2.24505013
O     -1.60415820   -1.19356677   -0.42613505
H     -0.63468754    0.27498822   -1.47078127
H     -1.66670192   -1.70855353   -1.25529595
H      2.09833828   -1.45130251    0.56686031
