20

O     -2.45293021   -0.77422379    1.24553892
C     -1.43629243   -0.08261395    1.18879315
C     -0.04452218   -0.65868839    0.93705662
C      0.70435073    0.12727551   -0.10759597
C      0.17874438    0.69710136   -1.19861991
C      7.72082883   -0.19770059   -0.25916266
O      8.84363897    0.38702624    0.37463101
H      7.01856746    0.58592192   -0.55392687
H      8.05557486   -0.73712343   -1.14831344
H     -1.47770679    1.00055492    1.39523370
O     -0.10389583   -2.02116302    0.53660890
H      0.48612423   -0.60437334    1.89435801
H     -0.85242066   -2.41262106    1.02486099
O      0.96383744    1.41587591   -2.06587421
H     -0.86296512    0.64332409   -1.48805471
H      0.40819362    1.69449024   -2.81765539
O      2.06732677    0.26515494    0.12632170
H      7.23657197   -0.89641154    0.42743729
H      2.42215605    0.70990660   -0.67097178
H      8.51558813    0.85828739    1.15933466
20

O     -2.70954216    0.90238059   -0.25351439
C     -1.51488308    1.19586556   -0.23488162
C     -0.46748748    0.43286500    0.60231715
C      0.70818570    0.13148678   -0.27696923
C      1.06690794   -1.06858332   -0.74122630
C      8.22717980    0.26656967   -0.20072803
O      7.42150083   -0.87736847    0.01511790
H      9.25023460    0.05905388    0.12240856
H      8.22569853    0.50628441   -1.26663407
H     -1.13348447    2.06408844   -0.80031403
O     -1.01007402   -0.75007250    1.14490970
H      1.32227526    0.98485871   -0.55760805
H     -1.95856158   -0.55145812    1.26652216
O      2.16443033   -1.22410633   -1.54063473
H      0.53297576   -1.98855547   -0.53320070
H      2.25441409   -2.17095980   -1.75321737
O     -0.03468943    1.23244328    1.67817663
H      7.82045704    1.11106679    0.36098578
H      0.77953312    0.80974718    1.99964080
H      7.44214328   -1.06560628    0.96884988
