20

O      0.99226184    0.09844694    2.51960306
C      0.55311924   -0.73616849    1.72775676
C     -0.80810911   -0.57825598    1.06275019
C     -0.75634706   -0.83611049   -0.45023333
C     -0.20974077    0.33544799   -1.31360200
C      0.99870848    1.10299000   -0.76044937
O      2.07771447    0.23713609   -0.45013422
H      0.72523479    1.68160710    0.12863566
H      1.34198365    1.83417522   -1.50118721
H      1.09932958   -1.67156706    1.51527749
O     -1.37250032    0.70799451    1.32787278
H     -1.44876312   -1.33296651    1.53434194
H     -1.00225154    0.98030634    2.19463310
O     -1.26543543    1.27916660   -1.55131647
H      0.07702355   -0.07399079   -2.28985003
H     -1.61280540    1.53559097   -0.67182218
O     -0.10073610   -2.07907902   -0.71618085
H     -1.79963171   -0.98202460   -0.76374368
H     -0.16741246   -2.24124698   -1.67537544
H      2.67835744    0.73854815    0.13302381