20

O     -2.42621460    0.08714679    0.07166518
C     -1.71241194    0.49624401   -0.82714492
C     -0.51309777   -0.18545669   -1.41724626
C      0.40529276   -0.88003414   -0.41170773
C      0.41505627   -0.40193873    1.05688047
C      0.55701950    1.10559469    1.27481320
O      1.48923241    1.66954564    0.35628596
H      0.91475884    1.32200497    2.28755396
H     -0.39703029    1.62190235    1.14601099
H     -0.87556965   -0.88642533   -2.17782748
O     -1.95480274    1.68711100   -1.40975392
H      0.07808610    0.58014582   -1.93532019
H     -2.71401735    2.06315794   -0.91797425
O      1.55504776   -1.03718617    1.68171063
H     -0.45867949   -0.77599476    1.60225327
H      1.43336347   -1.99098468    1.49943593
O      0.13527243   -2.29868877   -0.38573220
H      1.43067391   -0.81481212   -0.80005329
H      0.28445079   -2.64385623   -1.28410265
H      2.35356960    1.28252440    0.59025330