20

O     -1.56681620    1.18206629    2.52175172
C     -1.58987025    0.95436269    1.31220250
C     -0.77212745   -0.13406157    0.51589730
C      0.00651975    0.43445759   -0.72293697
C      1.19256218   -0.48530956   -0.32172034
C      0.62167301   -0.49722890    1.10876513
O      0.47837012    3.20085136    1.77401538
H      0.67533161   -1.46703679    1.61276911
H      1.04936444    0.26345354    1.77214486
H     -2.23541833    1.57432161    0.66684401
O     -1.59836494   -1.29159746    0.19113888
H     -0.31839159    3.71761845    1.58144452
H     -1.89080462   -1.12024749   -0.72647288
O      2.50521207    0.08525346   -0.47912412
H      1.14716900   -1.47502828   -0.79519758
H      2.80882349   -0.20225113   -1.35775248
O     -0.61530580    0.17154625   -2.00338593
H      0.23897071    1.50374655   -0.63384475
H      0.02308135    0.50355320   -2.66107847
H      1.15002254    3.87094528    1.97103863
20

O     -1.00961544   -0.51134783    0.43459091
C      0.01027065    0.00520151   -0.00442123
C      0.14800279   -3.33875464    2.70335277
C      1.44651947   -4.20176853    2.92869143
C      0.99982182   -4.37794951    4.40453419
C     -0.43206124   -4.00391374    3.97748481
O      0.33814998   -1.91329782    2.79482483
H     -1.08237387   -4.86450497    3.78346510
H     -0.95415318   -3.32595760    4.66010371
H     -0.01598104    0.86097061   -0.69775507
O     -0.55872568   -3.67027225    1.49164049
H      1.01532583   -0.35482429    0.26758540
H     -0.17331847   -4.52850305    1.23033413
O      1.60979583   -3.47863618    5.35535732
H      1.07138729   -5.40839039    4.77132676
H      2.43163954   -3.91970046    5.63708708
O      1.52653057   -5.41150785    2.13048392
H      2.36987942   -3.62152150    2.81589476
H      2.41961345   -5.76234882    2.29693898
H      0.67298919   -1.76126269    3.69620770
