20

O     -1.00961544   -0.51134783    0.43459091
C      0.01027065    0.00520151   -0.00442123
C      0.14800279   -3.33875464    2.70335277
C      1.44651947   -4.20176853    2.92869143
C      0.99982182   -4.37794951    4.40453419
C     -0.43206124   -4.00391374    3.97748481
O      0.33814998   -1.91329782    2.79482483
H     -1.08237387   -4.86450497    3.78346510
H     -0.95415318   -3.32595760    4.66010371
H     -0.01598104    0.86097061   -0.69775507
O     -0.55872568   -3.67027225    1.49164049
H      1.01532583   -0.35482429    0.26758540
H     -0.17331847   -4.52850305    1.23033413
O      1.60979583   -3.47863618    5.35535732
H      1.07138729   -5.40839039    4.77132676
H      2.43163954   -3.91970046    5.63708708
O      1.52653057   -5.41150785    2.13048392
H      2.36987942   -3.62152150    2.81589476
H      2.41961345   -5.76234882    2.29693898
H      0.67298919   -1.76126269    3.69620770