20

O     -3.70912641   -0.77992278    0.29125492
C     -2.61771283    0.04438704    0.22710592
C     -1.43644046   -0.36873612   -0.23944768
C     -0.20189195    0.49661279   -0.32329842
C      0.84780125    0.09200100    0.73882831
C      2.10439628    0.97411410    0.64924382
O      2.84879866    0.71624113   -0.53833374
H      2.77217646    0.75818195    1.48914124
H      1.84550896    2.03717196    0.68277716
H     -2.83455501    1.03312347    0.60715391
O     -1.30860734   -1.67635310   -0.69136583
H     -3.40494529   -1.64182655   -0.06231819
H     -0.34020239   -1.86014841   -0.70335527
O      1.21103533   -1.29309054    0.54880867
H      0.41294588    0.18516823    1.74054498
H      2.10415094   -1.40865893    0.92409713
O      0.36337268    0.35101684   -1.63727175
H     -0.46429779    1.55379670   -0.20269876
H     -0.38770647    0.26542500   -2.25496998
H      2.19529951    0.52149623   -1.24589644