20

O     -1.03453561    2.18984947    1.51874724
C     -0.18479064    1.79294151    0.72068799
C      0.76824030    0.65726673    1.04409274
C      1.00358356   -0.32629953   -0.12481990
C     -0.17959253   -1.18769240   -0.58505699
C     -1.32031722   -0.42976053   -1.24546828
O     -2.21027443    0.03067662   -0.24305197
H     -1.88040635   -1.10137424   -1.90395697
H     -0.97117795    0.42103068   -1.83803135
H     -0.02564952    2.30448957   -0.24300110
O      0.40747448   -0.06284792    2.22515825
H      1.72365855    1.15062018    1.26738287
H     -0.48313524    0.26615762    2.47180393
O      1.57137127    0.36703498   -1.22264925
H     -0.55168999   -1.78240288    0.25884047
H      2.13123051   -0.31452530   -1.64055595
O      2.02345555   -1.24794917    0.28566505
H      0.20245739   -1.90634781   -1.32280970
H      1.98504267   -1.26026140    1.26445494
H     -2.97494478    0.43939383   -0.68743201
20

O     -0.61028488    1.42855425   -2.06831093
C     -0.25335367    0.94606982   -0.99663839
C     -1.20968431    0.33709817    0.00734238
C     -0.25650358   -0.51864419    0.87886489
C      1.14045802   -0.45028836    0.26491880
C      1.18281287    0.85589602   -0.50837135
O      2.20398504    0.83914758   -1.47773590
H      1.35708784    1.70336371    0.16344297
H      0.36766283    4.01097582    1.08794350
H     -0.22920439    3.74744253    0.73880209
O     -2.24522148   -0.45111743   -0.56512331
H     -1.65820566    1.14949502    0.58961023
H     -2.75676057    0.15315633   -1.13866687
O     -0.67375256   -1.87011672    0.94217793
H      1.32701085   -1.30135050   -0.40221052
H     -1.56714375   -1.88160905    0.53668573
O     -0.23692331   -0.01018337    2.19752702
H      1.93279359   -0.46764044    1.02258329
H      0.33526051   -0.62123413    2.69528488
H      1.98842501    0.15940330   -2.14138084
