20

O      1.87174657    0.91428876    2.52668905
C      1.56495723   -0.23960517    2.22941987
C      0.65421796   -0.60331420    1.06670952
C      0.14780005    0.65037983    0.33667927
C     -0.76148381    0.37362046   -0.88543500
C     -0.46251167   -0.90692405   -1.67093072
O     -1.28866727   -0.96331019   -2.83530798
H     -0.66265350   -1.80333556   -1.07828017
H      0.57629618   -0.92571319   -2.01306506
H      1.96531687   -1.09557446    2.79857979
O     -0.43727594   -1.36795021    1.56435129
H      1.24807065   -1.23290120    0.39616049
H     -1.07279754   -0.72501757    1.94249620
O     -0.66378827    1.47385976   -1.82267792
H     -1.81445735    0.36455894   -0.58006192
H      0.26699003    1.56188630   -2.09426572
O     -0.63495773    1.42551034    1.27362689
H      0.99004761    1.28413064    0.03309462
H      0.00153331    1.85069102    1.88599102
H     -1.48838338   -0.03528023   -3.07377353
20

O     -1.01713562   -0.83465231    0.11459994
C     -0.37596659    0.18658369   -0.04645508
C      3.86601829    0.32389777   -2.70653687
C      4.61753074   -0.82649958   -1.98142571
C      5.93031551   -0.24362876   -2.57994503
C      5.06284651    0.40845490   -3.67690331
O      0.96497786    0.19512974   -0.00167926
H      5.36466534    1.41889896   -3.96638054
H      4.94516694   -0.19822264   -4.58200651
H     -0.77904262    1.19122396   -0.24059406
O      3.62230611    1.50267366   -1.90788077
H      2.93371076    0.00420106   -3.18366171
H      3.45181613    1.14024691   -1.01533529
O      6.90262291   -1.21261457   -3.01596831
H      6.40312627    0.49273390   -1.91684257
H      7.60150022   -0.68708180   -3.44431622
O      4.50769478   -0.82473011   -0.53976904
H      4.36077558   -1.81702076   -2.37831251
H      5.17402353   -1.47636133   -0.25368026
H      1.20716697   -0.73828509    0.17412846
