9
65.36070865737565
C        0.200956      -0.054704       0.905314
C       -0.340189       0.190526      -1.130178
H        1.250679       0.103483       0.640501
H        0.038164       1.207537      -1.247628
H        0.269061      -0.601505      -1.577421
O       -1.205991      -0.107230       0.053567
H       -1.193875       0.204822      -1.808335
H       -0.172159       0.734808       1.549924
H        0.066481      -1.031540       1.353443
9
61.08778479756438
C        0.285137      -0.097717       0.955252
C       -0.294168       0.113236      -1.045958
H        1.331303       0.019827       0.686570
H        0.094727       1.118757      -1.227443
H        0.296957      -0.708640      -1.465381
O       -1.099273      -0.152320       0.134396
H       -1.130882       0.130506      -1.709690
H       -0.037872       0.691546       1.632408
H        0.127276      -1.072093       1.439637
