9
66.92417995202413
C        0.568064      -0.039367       0.813356
C       -0.030722       0.095141      -0.631866
H        1.671300       0.090802       0.745014
H        0.370547       1.113632      -0.748069
H        0.583981      -0.692244      -1.094370
O       -1.437548      -0.136186      -0.298711
H       -1.197054       0.079492      -1.400944
H        0.139799       0.746811       1.445203
H        0.393967      -1.033859       1.233427
9
64.39270991070953
C        0.539741      -0.030578       0.720244
C       -0.131100       0.096758      -0.693759
H        1.624634       0.115422       0.584002
H        0.247770       1.118542      -0.808785
H        0.463922      -0.716898      -1.132116
O       -1.563881      -0.142118      -0.336759
H       -1.339041       0.077816      -1.406489
H        0.166986       0.752472       1.363293
H        0.378503      -1.040510       1.096583
