9
149.24648465737118
C       -0.607260       0.031195       0.412070
C        0.557582       0.363658       0.712468
H        0.145567      -0.933620       0.154873
H       -1.361327      -0.184030       1.176515
H       -0.937892       0.466037      -0.528720
O        1.154117      -0.851950       0.156905
H        0.877030       0.508964       1.761604
H        0.957304       1.188867       0.100784
H        1.162642      -1.552871       0.825231
9
107.65658031844941
C       -0.733881       0.033780       0.361720
C        0.497836       0.354124       0.666487
H        0.026886      -0.947867       0.022412
H       -1.458348      -0.236492       1.133484
H       -1.106564       0.508441      -0.545632
O        1.139088      -0.838429       0.042605
H        0.864227       0.438125       1.687054
H        0.847232       1.226542       0.082500
H        1.196284      -1.545546       0.702150
9
40.27425515242794
C       -0.862351       0.140765       0.515398
C        0.688578       0.328053       0.632572
H       -0.418643      -0.872739       0.152387
H       -1.488079       0.050436       1.402355
H       -1.343500       0.660684      -0.316013
O        1.108033      -0.934876      -0.010252
H        1.116734       0.484599       1.632009
H        1.083668       1.121023      -0.021996
H        1.160594      -1.595254       0.668814
9
18.470361452607904
C       -0.810097       0.400936       0.423665
C        0.759931       0.415739       0.399840
H       -0.733278      -0.527423      -0.149356
H       -1.285379       0.226176       1.377536
H       -1.410201       1.168313      -0.087876
O        1.099224      -0.687876      -0.486318
H        1.181837       0.341078       1.405752
H        1.190372       1.302249      -0.059558
H        1.072900      -1.487701       0.055858
9
7.570932648857706
C       -0.665401       0.352672       0.482554
C        0.841705       0.332387       0.311778
H       -0.911765      -0.433212      -0.221318
H       -1.050276       0.037701       1.453388
H       -1.195264       1.277371       0.232790
O        1.199031      -0.548288      -0.781743
H        1.356762       0.019266       1.238254
H        1.228687       1.317159       0.018092
H        1.086601      -1.438212      -0.444553
9
4.130270942609059
C       -0.662396       0.268098       0.600019
C        0.868257       0.239271       0.375690
H       -1.103710      -0.325533      -0.191866
H       -0.992124      -0.189892       1.552475
H       -1.099973       1.263642       0.554973
O        1.222186      -0.354134      -0.865413
H        1.388464      -0.247876       1.213233
H        1.257290       1.257754       0.309611
H        1.057906      -1.312109      -0.811253
9
3.5266535475675482
C       -0.615412       0.266876       0.664550
C        0.908529       0.207779       0.409258
H       -1.148253      -0.227686      -0.156031
H       -0.899309      -0.222791       1.601544
H       -0.983625       1.297146       0.695842
O        1.250762      -0.269997      -0.889787
H        1.401055      -0.403248       1.181837
H        1.350768       1.205191       0.466000
H        0.993795      -1.204665      -0.931038
9
3.5104724502016325
C       -0.612322       0.261466       0.675780
C        0.913125       0.201509       0.428849
H       -1.140967      -0.234510      -0.146335
H       -0.900836      -0.225079       1.613349
H       -0.979585       1.292616       0.704640
O        1.262389      -0.273912      -0.868941
H        1.399927      -0.412092       1.203765
H        1.355142       1.199038       0.490369
H        0.988918      -1.203337      -0.919272
