20

O      2.69779655   -0.70116805    2.69541991
C      1.64753363   -0.84781856    2.07617964
C      0.92862371    0.24330431    1.28140619
C      0.62926311   -0.31261258   -0.13446343
C     -0.87201192   -0.62885961   -0.39256679
C     -1.62993475    0.43825239   -1.19436297
O     -1.05596953    0.56508388   -2.49323853
H     -1.59908949    1.40970553   -0.69110991
H     -2.68121223    0.14841100   -1.30195480
H      1.12848143   -1.82279033    2.09796566
O      1.66234562    1.46118612    1.20494924
H      0.01958553    0.47070689    1.84355021
H      2.19846495    1.39191900    0.38870540
O     -1.55679272   -0.96316090    0.81641491
H     -0.88663945   -1.53945635   -1.00547543
H     -2.03136765   -0.17345476    1.13673583
O      1.23386280    0.53621093   -1.12401485
H      1.15024799   -1.27267927   -0.24322758
H      0.68422392    0.48764997   -1.93705881
H     -1.66741151    1.10957041   -3.02385391
20

O     -1.17792306   -0.53814396    0.25931422
C     -0.30509274    0.28562555    0.06049076
C      0.37641113    0.23275384   -3.39959777
C      1.12885315    0.82636074   -4.56317142
C      1.85136287    0.51431943   -3.27816152
C      2.87293057   -0.56988916   -3.21507395
O      3.90281330   -0.29460191   -4.15436439
H      2.46491895   -1.56141578   -3.43271429
H      3.32292357   -0.60605045   -2.21817815
H     -0.42041769    1.37929267    0.06787926
O     -0.02978323   -1.13565965   -3.59093111
H     -0.30766047    0.89152130   -2.87306200
H     -0.32035605   -1.53371181   -2.75134248
O      0.96046552   -0.07344947   -0.20339875
H      2.15957090    1.36790095   -2.68357763
H      0.94296798   -1.05332479   -0.18428549
O      1.37666880   -0.06908030   -5.66397464
H      0.95722052    1.87175948   -4.79756690
H      0.80171940   -0.85480975   -5.56620172
H      3.44959572   -0.23365325   -5.01944997
