20

O     -2.60798864    1.49894031    0.88089671
C     -1.56179505    0.98365278    1.27831676
C     -0.72349665   -0.13217191    0.54915848
C     -0.03409172    0.34759386   -0.77811125
C      1.21420735   -0.47232552   -0.34722795
C      0.71167163   -0.36695120    1.10487659
O      7.23769748    0.10176986   -0.35510899
H      0.83943579   -1.27708556    1.69872727
H      1.12982689    0.47631915    1.66674333
H     -1.13703501    1.31084938    2.24236990
O     -1.49665231   -1.35758533    0.39678327
H      6.35484478    0.28619522   -0.00082182
H     -2.10472886   -1.14663194   -0.34049909
O      2.49144484    0.13563701   -0.61709454
H      1.19711249   -1.50535802   -0.71922871
H      2.74943432   -0.19611417   -1.49536489
O     -0.67535663   -0.06376107   -2.00790855
H      0.14626749    1.43080976   -0.79686685
H     -0.13825592    0.33418248   -2.71557047
H      7.67763284   -0.38796507    0.35593080
20

O     -1.16947675    1.46472789    1.01270935
C     -0.51686733    0.28254746    1.49270281
C     -1.29967938    0.27271846    0.23782242
C     -0.39214690    0.13642921   -0.93901745
C      0.99840208   -0.18645873   -0.33645141
C      0.93397302    0.16235194    1.16525917
O      6.89842919    0.25755964   -0.18146835
H      1.38480188   -0.64803184    1.74904002
H      1.47405830    1.08457120    1.40311497
H     -0.87210226   -0.19749223    2.38812687
O     -2.56057882   -0.39248076    0.22248060
H      6.39127792    0.38851734    0.63376699
H     -2.59931771   -0.95795189   -0.57396346
O      2.00314920    0.57895084   -1.00177722
H      1.24831691   -1.24464568   -0.47445007
H      2.83132570    0.48703853   -0.49868037
O     -0.84320641   -0.93995380   -1.77217568
H     -0.38720455    1.05108651   -1.54172072
H     -0.23344697   -0.95340712   -2.53301986
H      6.67695048   -0.64607698   -0.45229864
