20

O     -0.08951630    2.72612040   -2.00073652
C     -0.37543000    1.54036133   -1.84835129
C     -1.15008050    1.01007107   -0.66148615
C     -0.22433422    0.28705629    0.35451436
C      0.53486238   -0.89838220   -0.26727331
C      1.45964871   -1.67447604    0.67458973
O      1.07010057   -1.56180824    2.03599990
H      2.49591438   -1.33222121    0.58180189
H      1.44477276   -2.73641130    0.40708675
H     -0.05623031    0.78521515   -2.58731078
O     -2.16338977    0.13623678   -1.17371314
H     -1.64902718    1.85404005   -0.16918164
H     -2.94429935    0.68746934   -1.36191385
O      0.71671845    1.17788970    0.93631656
H      1.15919932   -0.55675997   -1.10217670
H      0.19617195    1.93419622    1.26303074
O     -1.04604529   -0.14754949    1.43636733
H     -0.19003311   -1.60686832   -0.68499469
H     -0.60365280   -0.92858398    1.82817907
H      1.41465033   -0.69559557    2.33925175
20

O     -3.60278403   -0.47499633    0.57818246
C     -2.50751264   -0.52767577    1.00403331
C     -1.29427256   -0.56331366    1.45926552
C     -0.05555173   -0.31150012    0.66750325
C     -0.27654350    0.27765317   -0.73333420
C      0.97818836    0.47941238   -1.58916784
O      2.16724223    0.01327906   -0.96910062
H      1.10862310    1.53809812   -1.83904388
H      0.86480692   -0.05793630   -2.53685511
H     -2.26569548   -2.87166904   -1.13424416
O     -1.50250408   -3.09764387   -0.58158218
H     -1.14822904   -0.97103028    2.45357120
H     -1.86387446   -3.70863558    0.07800980
O      0.76749584    0.57261898    1.41615586
H     -0.77294649    1.25448728   -0.64614448
H      0.28651618    1.41234420    1.50313866
O      0.61747031   -1.55127849    0.60917621
H     -0.96355395   -0.35746269   -1.30758006
H      1.46343337   -1.35428671    0.15999850
H      2.36761763    0.62158715   -0.22979880
