20

O     -2.87768267    0.58542920    1.25954669
C     -2.04608201    0.14838502    0.46740972
C     -0.74889888   -0.52930317    0.88074195
C      0.50007561   -0.06943512    0.16044166
C      0.61826514    1.29051486   -0.49149090
C      0.55895052    0.05038501   -1.34272889
O      7.06201011    0.14218672   -0.07618027
H     -0.33001826   -0.11276929   -1.93728167
H      1.47048720   -0.26003902   -1.84378770
H     -2.24605288    0.18699868   -0.61530380
O     -0.84097374   -1.94602932    0.72441887
H     -0.61696911   -0.33459558    1.95137487
H     -0.95853785   -2.13722949   -0.22182721
O      1.91400308    1.90549667   -0.39963662
H     -0.23853109    1.95375121   -0.51608065
H      2.51637460    1.32602016    0.10828138
O      1.72598571   -0.57004518    0.75177829
H      6.65040611   -0.66219620   -0.42619637
H      1.59960459   -1.48753464    1.06414401
H      6.38268479    0.52000947    0.50237663
20

O     -2.50736600    0.49856148    1.37258215
C     -1.36120426    0.51395712    0.94925637
C     -0.52358761   -0.72339121    0.57687427
C      0.68241592   -0.16809835   -0.11434295
C      0.64864906    1.30822984    0.08694303
C      0.59702125    0.74616012   -1.30606974
O      7.04976742    0.14218672   -0.07618027
H     -0.33560432    0.79444770   -1.85546369
H      1.47888183    0.85878479   -1.92579105
H     -2.99147217    2.12807463   -1.03141148
O     -1.16836155   -1.66868936   -0.25642052
H     -0.22847247   -1.21404874    1.51112692
H     -2.04118272   -1.83195995    0.14836732
O     -0.61729164    1.64385173    0.70438122
H      1.54642492    1.81459012    0.41768446
H     -2.59267604    2.71392566   -1.24434393
O      1.92403962   -0.85589767    0.07486913
H      6.63816343   -0.66219620   -0.42619637
H      1.90563798   -1.71649761   -0.38399694
H      6.37044211    0.52000947    0.50237663
