20

O     -2.87768267    0.58542920    1.25954669
C     -2.04608201    0.14838502    0.46740972
C     -0.74889888   -0.52930317    0.88074195
C      0.50007561   -0.06943512    0.16044166
C      0.61826514    1.29051486   -0.49149090
C      0.55895052    0.05038501   -1.34272889
O      7.06201011    0.14218672   -0.07618027
H     -0.33001826   -0.11276929   -1.93728167
H      1.47048720   -0.26003902   -1.84378770
H     -2.24605288    0.18699868   -0.61530380
O     -0.84097374   -1.94602932    0.72441887
H     -0.61696911   -0.33459558    1.95137487
H     -0.95853785   -2.13722949   -0.22182721
O      1.91400308    1.90549667   -0.39963662
H     -0.23853109    1.95375121   -0.51608065
H      2.51637460    1.32602016    0.10828138
O      1.72598571   -0.57004518    0.75177829
H      6.65040611   -0.66219620   -0.42619637
H      1.59960459   -1.48753464    1.06414401
H      6.38268479    0.52000947    0.50237663