20

O      3.47934006   -0.52369755   -0.87262024
C      2.31358592   -0.20382535   -1.03051520
C      1.16690507   -0.55341755   -0.12356588
C      0.28870616    0.66017229    0.18263339
C     -1.12135552    0.34004206    0.75032501
C     -1.60450944   -1.10905663    0.63196903
O     -2.92607073   -1.22352768    1.16255294
H     -0.95913738   -1.79460258    1.18843940
H     -1.65844790   -1.42508899   -0.41403519
H      0.61828861   -1.34432236   -0.64339907
O      1.93273227    0.44784183   -2.14541034
H      1.58516689   -0.96581508    0.80157247
H      2.76190638    0.54645488   -2.66255514
O     -2.10856178    1.16338792    0.08281148
H     -1.18174328    0.64043278    1.80314480
H     -2.04180044    0.99729216   -0.87438104
O      0.96340638    1.46934469    1.16337230
H      0.17130868    1.29850894   -0.70014363
H      1.68673394    1.94995047    0.72433085
H     -3.36645386   -0.37007427    0.97547405
20

O     -2.94830076   -1.36058964   -0.16995585
C     -1.89648686   -0.77678893   -0.37932031
C     -1.29153892    0.27361535    0.50149991
C      1.02984800   -0.84920073    0.61325711
C      0.22837279    0.46086818    0.40831691
C      0.66927537    1.15599736   -0.90149812
O      1.93282726    1.80456699   -0.70816005
H     -0.03971479    1.94242322   -1.17876531
H      0.75950834    0.46693590   -1.74640223
H     -1.79904333    1.22323342    0.29243282
O     -1.24042153   -0.99644260   -1.53036398
H     -1.55415629    0.01748079    1.53695436
H     -1.83151940   -1.62112662   -2.00688345
O      0.56521918    1.36490349    1.49416620
H      2.00849927   -0.63079091    1.05479082
H      1.14977846    2.05337772    1.11560426
O      0.37591384   -1.75597448    1.49842318
H      1.20193689   -1.37122973   -0.33448093
H      0.07516321   -2.52218161    0.97925063
H      2.60483927    1.12092282   -0.53886597
