20

O      3.47934006   -0.52369755   -0.87262024
C      2.31358592   -0.20382535   -1.03051520
C      1.16690507   -0.55341755   -0.12356588
C      0.28870616    0.66017229    0.18263339
C     -1.12135552    0.34004206    0.75032501
C     -1.60450944   -1.10905663    0.63196903
O     -2.92607073   -1.22352768    1.16255294
H     -0.95913738   -1.79460258    1.18843940
H     -1.65844790   -1.42508899   -0.41403519
H      0.61828861   -1.34432236   -0.64339907
O      1.93273227    0.44784183   -2.14541034
H      1.58516689   -0.96581508    0.80157247
H      2.76190638    0.54645488   -2.66255514
O     -2.10856178    1.16338792    0.08281148
H     -1.18174328    0.64043278    1.80314480
H     -2.04180044    0.99729216   -0.87438104
O      0.96340638    1.46934469    1.16337230
H      0.17130868    1.29850894   -0.70014363
H      1.68673394    1.94995047    0.72433085
H     -3.36645386   -0.37007427    0.97547405