9

C     -0.83671947   -0.32882976   -0.09778424
C      0.40279321    0.53900964   -0.16476444
H     -1.73450991    0.25613501   -0.31609703
H     -0.94166697   -0.77783158    0.89536429
H     -0.76861106   -1.15379013   -0.81452230
O      1.55787676   -0.24339393    0.10080494
H      0.35314937    1.35144310    0.56651848
H      0.50959608    0.97769145   -1.16110667
H      1.45809200   -0.62043380    0.99158695