20

O     -2.10207689    1.56120877    1.43608280
C     -1.18354036    0.99050226    0.89022594
C     -0.62446544   -0.42995786    0.79184042
C      0.31373986    0.31657961   -0.13001060
C      1.33252901   -0.10507096   -0.88174929
C      8.20622434    0.26656900   -0.20072770
O      7.40054055   -0.87736603    0.01511651
H      9.22927761    0.05904940    0.12241137
H      8.20474653    0.50628359   -1.26663377
H     -1.34516938    4.24237850    0.34579755
O     -1.46044355   -1.42257779    0.16107526
H     -0.20542314   -0.79578932    1.73387105
H     -2.28620214   -1.40769015    0.67746467
O      2.07784659    0.74199325   -1.65275771
H      1.63048016   -1.14429524   -0.93201057
H      2.72056833    0.21364955   -2.15757280
O     -0.21301242    1.48144789    0.06354081
H      7.79950346    1.11106777    0.36098502
H     -0.80047435    4.41369504   -0.12490189
H      7.42117996   -1.06560373    0.96884857