20

O     -1.64492333   -2.40786778    1.70121598
C     -0.52879655   -1.88583495    1.71134193
C      0.29146116   -1.66406974    0.44524882
C      0.36841493   -0.17690893    0.17737217
C     -0.04672837    0.42353829   -0.95467815
C     -0.01196336    1.87833007   -1.30169020
O      0.47358326    2.64707185   -0.20482043
H     -1.02046280    2.22336695   -1.54933438
H      0.64481467    2.04277073   -2.16116666
H     -0.05517223   -1.56281742    2.65423774
O     -0.30360303   -2.36136278   -0.64855612
H      1.29216895   -2.07791516    0.60279564
H     -1.23256920   -2.51603741   -0.38174482
O     -1.61168945    0.48623490    3.12902969
H     -0.46046183   -0.20218910   -1.74445335
H     -2.45895427    0.16353669    3.47103727
O      0.93005955    0.55836481    1.21019457
H     -1.82510830    0.80716919    2.23997706
H      0.91007041    1.50208474    0.92217067
H      0.39410779    3.57947584   -0.47813340
20

O     -2.57662724   -0.54320393   -1.17370713
C     -2.22647577    0.20948298   -0.01414658
C     -1.09420363   -0.54361188    0.76983713
C      0.31398086   -0.01018406    0.55828676
C      1.33069918   -0.67098432   -0.02819329
C      2.72915230   -0.18478615   -0.24844346
O      2.81847058    1.21505510    0.00494337
H      3.04933528   -0.37527835   -1.27758731
H      3.41551449   -0.70030445    0.42950631
H     -3.11520086    0.25769624    0.62451665
O     -1.15804033   -1.94852962    0.46726342
H     -1.30684140   -0.45088989    1.84193613
H     -1.66182165   -1.99018530   -0.37371010
O     -1.93781272    1.52015146   -0.45386559
H      1.14760659   -1.68235416   -0.38652259
H     -3.35461962   -0.07096903   -1.52139076
O      0.50172552    1.26106587    1.07961112
H     -0.96785029    1.60087499   -0.49302718
H      1.46699402    1.45369646    1.04004005
H      2.62601469    1.65325805   -0.84534696
