20

O     -1.33736486    1.47686897    1.81065270
C     -0.87634926    0.34576234    1.68546556
C     -1.41385863   -0.69261282    0.71251384
C     -0.34412264   -1.14137014   -0.29846419
C      0.36940844   -0.01337904   -1.08447811
C      1.64232991    0.55614489   -0.42848475
O      1.34299689    1.81225562    0.17586374
H      2.39803233    0.73791445   -1.20014211
H      2.07956601   -0.10810729    0.32118634
H     -0.02983341    0.01043212    2.30930696
O     -2.57900670   -0.23710346    0.03060493
H     -1.71702501   -1.55021730    1.32447160
H     -2.30775662    0.57108593   -0.45372300
O     -0.53898320    1.04687457   -1.40269488
H      0.68751916   -0.46215002   -2.03389955
H     -0.24450804    1.81073490   -0.85252366
O      0.59799531   -2.02420436    0.31981897
H     -0.88457673   -1.74096370   -1.04510570
H      0.97132736   -2.58714577   -0.38361584
H      2.18420970    2.18918010    0.49324715