20

O     -2.97422908   -0.16166533    1.68751359
C     -1.87733752    0.35943311    1.51303732
C     -0.64060172   -0.41085757    1.05799042
C      0.17255269    0.31671725    0.00835764
C      0.86190097   -0.41833839   -1.12701304
C      1.67235751    0.12923277    0.00514016
O      6.83007128   -0.14541384    0.05166929
H      2.10692975   -0.58460502    0.69608861
H      2.29290812    0.99907178   -0.17309700
H     -1.71941922    1.42915055    1.73900255
O     -0.99013534   -1.71408212    0.59391703
H     -0.02532128   -0.54157000    1.95528681
H     -1.85594423   -1.61816036    0.15239236
O      0.94883746    0.32541700   -2.35875930
H      0.74541750   -1.49559074   -1.19099467
H      1.58153346   -0.09631839   -2.96814043
O     -0.27031226    1.64973788   -0.32920423
H      7.12898963    0.49925086   -0.60712981
H     -0.02913682    1.83242759   -1.26151784
H      7.63114255   -0.35383702    0.55546052
20

O     -3.17464945   -0.76291620    0.26695131
C     -2.02440104   -0.40587697    0.14063397
C     -0.61339924   -0.93225084    0.51095513
C     -0.19624234    0.29244949   -0.17640004
C      0.84540081    1.29043518    0.16907221
C      0.89767106    0.54273639   -1.14432634
O      7.40940002    0.14218672   -0.07618027
H      0.66029686    1.08755642   -2.04959893
H      1.64552288   -0.23132501   -1.26778304
H     -3.51479507   -0.06109483   -2.62972975
O     -0.24871403   -2.20589012   -0.07381516
H     -0.44453333   -0.94126818    1.59265746
H     -0.88920859   -2.83569194    0.30239417
O      1.80802129    0.88221851    1.15043453
H      0.56631824    2.33894389    0.13951110
H      2.70490620    1.17147998    0.90462116
O     -1.53698931    0.70939941   -0.46530754
H      6.99779602   -0.66219620   -0.42619637
H     -2.97150613    0.15974580   -3.08102405
H      6.73007470    0.52000947    0.50237663
