20

O      1.13635983    1.34841706   -1.79441089
C      1.63553990    0.84329893   -0.78743350
C      0.91255380    0.75348241    0.53879001
C     -0.61387176    0.57918875    0.32522526
C     -1.06527667   -0.66402767   -0.45293813
C     -0.38859260   -1.95638346   -0.01651677
O      0.94914506   -1.97938631   -0.50324991
H     -0.91700062   -2.81310383   -0.44706228
H     -0.37191628   -2.06548151    1.07199028
H      2.67961801    0.48803277   -0.78372194
O      1.19382148    1.97606709    1.24355959
H      1.32970558   -0.06129466    1.13659345
H      0.41776008    2.55130531    1.09137939
O     -1.24020847    0.55514241    1.60382945
H     -0.90427671   -0.50817767   -1.52633150
H     -2.09331211    0.99535079    1.43641538
O     -1.15725609    1.74554643   -0.29483492
H     -2.14824413   -0.78459654   -0.31547886
H     -0.62041191    1.89447006   -1.10523498
H      1.26586363   -2.89785034   -0.42056916
20

O      1.11756856   -0.62393613    2.86121908
C      1.40658871   -1.31861073    1.90082572
C     -0.53882965   -0.80402613   -1.15304577
C     -0.79053091    0.59516436   -0.54998343
C      0.23548156    1.12000347    0.46864727
C      1.64301935    0.52557918    0.41249386
O      1.68007234   -0.89317985    0.64230213
H      2.08725436    0.70312001   -0.57311126
H      2.29531343    1.02022696    1.14321172
H      1.46118104   -2.41777886    1.92343277
O     -1.69580583   -1.21514549   -1.90593051
H     -0.39887386   -1.55761236   -0.37397110
H     -2.02192502   -2.04018509   -1.50734514
O     -0.90593266    1.54819682   -1.59522172
H     -0.16784732    0.98965214    1.47836609
H     -1.37018303    2.29530605   -1.17880397
O     -2.07497049    0.58771588    0.06583122
H      0.34431135    2.20578444    0.33662897
H     -2.62499400    0.07995250   -0.56272131
H      0.31910207   -0.80022716   -1.83282464
