20

O      0.79010003    2.49749093   -1.53268704
C      0.82447415    1.26880697   -1.49675802
C     -0.41732101    0.41081320   -1.46826208
C     -0.59761517   -0.26283052   -0.07505953
C     -0.34384835    0.75256735    1.08198512
C      1.20998231   -1.62448329    0.85423704
O      0.12718189   -1.49418024   -0.04026804
H      1.65447603   -2.61231390    0.69834607
H      1.97818820   -0.87438048    0.65121455
H      1.78543630    0.73265324   -1.43449990
O     -0.31418766   -0.52855074   -2.54654848
H     -1.28421471    1.04948672   -1.67823023
H     -0.53266355   -0.05558481   -3.36735623
O     -0.81264489    0.21474254    2.32763099
H     -0.90718457    1.67530686    0.90658310
H     -0.68346048    0.90689154    3.00112975
O     -1.98537299   -0.63308083    0.03837665
H      0.87789664   -1.57732516    1.89361245
H     -2.08592498   -0.83981229    0.98788124
H      0.71670282    0.99378291    1.19867258