20

O     -2.73448877    1.33473233    0.96882188
C     -1.57009546    1.02218596    1.22493157
C     -0.72920490   -0.11814077    0.53584277
C     -0.01695813    0.33181410   -0.78948340
C      1.21753474   -0.49149722   -0.32718849
C      0.69633800   -0.35452900    1.11609728
O      7.15274183    0.25755964   -0.18146835
H      0.80703586   -1.25567021    1.72718131
H      1.11552875    0.49350346    1.66952645
H     -1.02881297    1.57521432    2.01090049
O     -1.50687472   -1.34364021    0.40689054
H      6.64559056    0.38851734    0.63376699
H     -2.19892924   -1.10357272   -0.24135287
O      2.50300069    0.10285501   -0.58936643
H      1.19728066   -1.53071591   -0.68118940
H      2.77103783   -0.24508298   -1.45824359
O     -0.64147068   -0.08354450   -2.02534280
H      0.17735523    1.41251630   -0.82020119
H     -0.05827688    0.25357204   -2.72782410
H      6.93126312   -0.64607698   -0.45229864
20

O     -2.65703750    1.18563904    0.76636656
C     -1.43981302    1.03095545    0.89802617
C     -0.60792051   -0.24356167    0.50708498
C      0.05962074   -0.03938619   -0.86517138
C      1.31194977   -0.11864500   -0.35675921
C      0.82340075   -0.34709804    1.06436084
O      7.16747783    0.25755964   -0.18146835
H      1.07286643   -1.32075748    1.50299323
H      1.09684268    0.42425375    1.79405991
H     -0.84537797    1.84452172    1.34829607
O     -1.39178389   -1.46371828    0.57788179
H      6.66032656    0.38851734    0.63376699
H     -2.19473848   -1.24087022    0.06821981
O      2.50392900   -0.05196914   -0.80980388
H      0.79312453   -2.79482806   -1.68805507
H      2.49010766    0.01821157   -1.77948453
O     -0.46034513    0.13364330   -2.02111944
H      0.27335406   -2.66444341   -2.19838683
H      0.23829949    0.18878120   -2.69495092
H      6.94599912   -0.64607698   -0.45229864
