20

O     -3.22625228   -0.15382637    1.16914711
C     -2.44953403    0.80241804    1.15151789
C     -1.40892661    0.97805623    0.06510703
C     -0.29763780   -0.08845958    0.25318497
C      0.72555605    0.01286829   -0.88927072
C      1.88522612   -0.96851872   -0.76694235
O      2.71645712   -0.83888392   -1.91545560
H      1.53320279   -2.00281073   -0.71193461
H      2.49398801   -0.75047412    0.11594282
H     -2.41113178    1.51901060    1.98873206
O     -0.88205317    2.30476141    0.14637919
H     -1.91691701    0.86028350   -0.89809699
H     -0.19976114    2.28176597    0.84800572
O      0.34656674    0.17766579    1.49448986
H      1.14389361    1.02572973   -0.94586152
H      0.82871502   -0.64382108    1.69867160
O     -0.78431306   -1.41829217    0.30932918
H      0.22404301   -0.16909184   -1.84901060
H     -1.72302317   -1.40201113    0.58799240
H      3.40190158   -1.52636990   -1.85192746
20

O     -2.04115688    1.04145058    1.28361272
C     -2.57975122    0.39224752    0.12556328
C     -1.24863609   -0.01437719    0.70064617
C      0.06747802    0.44313834    0.12690281
C      0.90922828   -0.76201322   -0.30929118
C      2.30055449   -0.39461425   -0.81010545
O      3.05257701   -1.58038084   -1.04749027
H      2.85085373    0.22140274   -0.09249610
H      2.24347638    0.14998914   -1.75720238
H     -2.60656146    0.95923515   -0.79765510
O     -3.67492156   -0.49034278    0.39938444
H     -1.17920704   -0.93194442    1.26804748
H     -4.19867675   -0.13361615    1.13731222
O     -0.14719926    1.32880908   -0.95455484
H      0.38832134   -1.31800576   -1.09990208
H      0.72901938    1.64727327   -1.22024373
O      0.76448851    1.17575699    1.11823472
H      1.02195166   -1.46191175    0.52929878
H      0.07410190    1.68895257    1.57941355
H      3.27405955   -1.96104905   -0.17947505
