20

O     -2.94792193    0.01076221    1.19075710
C     -2.00671447   -0.12350387    0.40987404
C     -0.61881071   -0.53477955    0.86090270
C      0.53999038    0.03777651    0.07785579
C      0.45132855    1.33883913   -0.68953393
C      0.56773939    0.03419564   -1.43082504
O      7.41280125    0.14218672   -0.07618027
H     -0.29271172   -0.32370953   -1.98094828
H      1.50818107   -0.18788653   -1.92387519
H     -2.17619744   -0.06071652   -0.67635030
O     -0.51019897   -1.95883139    0.81372461
H     -0.50861610   -0.22948597    1.90810904
H     -1.21026492   -2.30593236    1.39830219
O      1.64385316    2.14183164   -0.67874607
H     -0.49355146    1.86563614   -0.74892594
H      2.35517972    1.66185589   -0.20940792
O      1.82960604   -0.21784921    0.69142048
H      7.00119726   -0.66219620   -0.42619637
H      1.86910941   -1.14820224    0.98766675
H      6.73347594    0.52000947    0.50237663