20

O      0.23713260   -1.30217454    2.39836733
C     -0.06291879   -0.11803895    2.51994669
C     -0.66151006    0.77174432    1.44039684
C     -0.58340967    0.26325349   -0.00735197
C      0.79001587   -0.27125766   -0.47922231
C      0.94533147   -0.11796489   -2.00094588
O     -0.21267760   -0.62437548   -2.67717779
H      1.81575232   -0.68177757   -2.35404661
H      1.06138034    0.93486011   -2.27472930
H      0.01594227    0.36342685    3.51083242
O     -0.02648786    2.05460337    1.51896782
H     -1.71587419    0.90830504    1.71157111
H     -0.42746831    2.53531304    2.26546817
O      0.93013195   -1.67411601   -0.20821989
H      1.61533133    0.25208650    0.01452137
H      0.13825566   -1.95230775    0.29643281
O     -1.59777837   -0.72417556   -0.24609686
H     -0.83853805    1.12698989   -0.63609915
H     -1.47498688   -0.98169524   -1.18824903
H      0.05237598   -0.76269894   -3.60436578
20

O     -0.62617205    0.58930154   -1.20072478
C     -1.83341979    0.49269172   -0.41566448
C     -1.49523451   -0.25634356    0.87268277
C      0.01494049   -0.07365037    0.97481121
C      0.40558752   -0.13157670   -0.51182076
C      1.77471947    0.49399109   -0.83551208
O      2.84061677   -0.21104989   -0.20283947
H      1.82114884    1.55242007   -0.55760825
H      1.95406338    0.44637942   -1.91558489
H     -2.60135742   -0.00813833   -1.01263549
O     -1.83964852   -1.63879744    0.74219504
H     -2.04691694    0.14801256    1.72606313
H     -1.29106344   -2.00367881    0.01359437
O      0.35803630   -1.49732699   -0.94406673
H     -2.15509028    1.51727497   -0.20405825
H      1.16037393   -1.64451968   -1.47858898
O      0.34170880    1.18200135    1.58232219
H      0.48843281   -0.87372937    1.55311229
H     -0.08647605    1.89241634    1.07027052
H      2.81575070    0.02432209    0.74405264
