20

O     -2.70124761   -0.66883474    0.43176405
C     -1.95603960   -1.04199590    1.33602356
C     -0.43847311   -1.23222437    1.23223969
C      0.31124503   -0.17341993    0.44820006
C     -0.08537440    0.37192358   -0.71800207
C      0.60114920    1.42378069   -1.53444194
O      1.80811893    1.84580605   -0.90764115
H     -0.05547948    2.29204322   -1.64655437
H      0.84384662    1.02783750   -2.52514299
H     -2.38394080   -1.35261819    2.30502210
O     -0.15371720   -2.52289516    0.70374604
H     -0.07610464   -1.21669483    2.26764190
H     -0.26562862   -2.45509929   -0.26011497
O      7.82007542   -0.02676673    0.10665056
H     -1.02400946    0.03823065   -1.15735056
H      7.45746939    0.22047419   -0.75726483
O      1.50806305    0.20829916    1.03643818
H      7.03573157   -0.19370745    0.65061427
H      1.91622041    0.87846135    0.44082808
H      2.15137170    2.57740021   -1.45265559
20

O     -0.68395601   -0.23402969   -1.36884386
C     -1.75826617   -0.41132268   -0.40806697
C     -1.13590084   -0.64893741    0.97405841
C      0.19247540   -0.04287328    0.74037829
C      0.39767292    0.13742496   -0.56465584
C      1.60303442    0.68870376   -1.24655526
O      2.33052665    1.52459251   -0.34575953
H      1.33057151    1.28064850   -2.12584056
H      2.25990244   -0.12569610   -1.56642719
H     -2.35353016    0.51051715   -0.41596897
O     -0.97583649   -2.03515941    1.25569698
H     -1.71142843   -0.17708079    1.77489519
H     -1.85460788   -2.44477180    1.22486083
O      7.40300850   -0.02676673    0.10665056
H     -2.38624125   -1.24403533   -0.73959245
H      7.04040246    0.22047419   -0.75726483
O      1.04076985    0.26150338    1.76718080
H      6.61866465   -0.19370745    0.65061427
H      1.86711884    0.59550124    1.35708167
H      1.83769520    2.36501499   -0.31244153
