20

O     -2.27813510    0.61595602    0.18994086
C     -1.70706427   -0.16671400    0.94437088
C     -0.23902683   -0.61166414    0.87576190
C      0.66084701    0.18620577   -0.02888800
C      0.34767390    0.66559485   -1.23737114
C      7.77843538   -0.07907296    0.19598793
O      8.67285087    0.75091091   -0.52196069
H      8.29259664   -0.51007827    1.05853868
H      6.93445092    0.52278074    0.54107257
H     -2.27141473   -0.62970479    1.77276034
O     -0.16382251   -1.98569478    0.50754041
H      0.14145252   -0.51559466    1.90126865
H     -0.26442893   -2.51085613    1.31785302
O      1.25293258    1.39370016   -1.96935691
H     -0.60957506    0.52769050   -1.72426911
H      0.79955051    1.68386693   -2.78295165
O      1.93530240    0.42997848    0.47424108
H      7.41273556   -0.87412450   -0.45844149
H      2.39570849    0.91723577   -0.24090034
H      9.41067800    0.18958408   -0.81519700