20

O     -1.83657738    0.47151222    2.70132795
C     -2.13851799    0.42502967    1.50576634
C     -1.33581078   -0.40676369    0.50052742
C     -0.24893431    0.50871287   -0.13787265
C      1.12037977   -0.17618297   -0.24993424
C      2.20743058    0.73927020   -0.80872019
O      3.02395096    0.03031141   -1.73524310
H      2.85686916    1.09397417   -0.00036175
H      1.80413059    1.61803031   -1.31845606
H     -2.98848130    0.99611185    1.09986274
O     -2.18266229   -0.93087593   -0.50879064
H      1.44311019   -0.49618612    0.74988646
H     -2.55770211   -1.73582055   -0.10923056
O     -0.77691033   -1.52663451    1.16680437
H      1.03368945   -1.07905547   -0.86537032
H     -0.72567871   -1.28487889    2.11360251
O     -0.67858426    0.93874923   -1.44028224
H     -0.12351712    1.42039691    0.45817583
H     -1.20256638    0.19358947   -1.80598132
H      3.30638225   -0.79929020   -1.31571054