20

O     -1.11496598    3.11042723   -1.72662218
C     -0.89480975    1.90997060   -1.76686734
C     -1.24721505    0.92101467   -0.69153265
C     -0.11603297   -0.07774756   -0.41958973
C      0.40992369    0.01533963    1.03211589
C      1.54869796   -0.97514056    1.31735928
O      0.99112396   -2.27398544    1.54246455
H      2.06790795   -0.69260955    2.23854177
H      2.27141933   -1.01190937    0.49636520
H     -1.46715164    1.51264502    0.20505026
O     -0.36104513    1.36198593   -2.87195638
H     -2.17403848    0.42077672   -0.99351809
H     -0.25810377    2.11363882   -3.49233254
O     -0.66383073   -0.25870131    1.94713851
H      0.76369947    1.03603711    1.21579716
H     -0.52532291   -1.18628654    2.23582404
O     -0.60622915   -1.39701910   -0.69591004
H      0.73123010    0.08284122   -1.09463419
H     -1.06809351   -1.69548177    0.11018654
H      1.71283662   -2.91579573    1.41211996
20

O     -3.10473283   -1.01984133    0.31603528
C     -1.90372887   -1.14288660    0.47542463
C     -1.01764045   -0.21352953    1.25091744
C      0.33838113    0.06140718    0.59047554
C      0.20346296    0.55517305   -0.88081324
C      1.54159981    0.74162517   -1.59157366
O      0.95171154    1.10095883    1.35866570
H      1.37924676    1.12529826   -2.60500877
H      2.17281051    1.47529098   -1.08077038
H     -1.56260425    0.72964479    1.38247078
O     -1.27558863   -2.24822364    0.03443657
H     -0.88460030   -0.63986901    2.25249346
H     -1.98246645   -2.75985340   -0.41638814
O     -0.49406404    1.80621556   -0.91330709
H     -0.37584569   -0.16125214   -1.47218908
H     -0.10918521    2.35207773   -0.19917112
O      1.23337394   -1.03118992    0.68831041
H      2.08745044   -0.20366574   -1.66767148
H      0.91821346   -1.61512958    1.39838642
H      1.88420617    1.08774935    1.07927675
