20

O     -2.58667105    1.51880388    0.86772795
C     -1.55338587    0.98809865    1.27817836
C     -0.71879482   -0.13487047    0.55567086
C     -0.04081366    0.33275286   -0.78145390
C      1.21838330   -0.46811289   -0.34830494
C      0.71972929   -0.36188357    1.10483839
O      7.05868613    0.10176986   -0.35510899
H      0.85400089   -1.27025650    1.70010045
H      1.13604318    0.48417525    1.66379918
H     -1.13803790    1.30560985    2.24955238
O     -1.49202741   -1.36226789    0.42188578
H      6.17583343    0.28619522   -0.00082182
H     -2.10306683   -1.16115153   -0.31566705
O      2.48679366    0.15521236   -0.62520157
H      1.21430491   -1.50320035   -0.71470980
H      2.72562182   -0.14306006   -1.52065177
O     -0.68549970   -0.10111223   -2.00184368
H      0.12886443    1.41726922   -0.81585235
H     -0.16544425    0.30399343   -2.71806832
H      7.49862149   -0.38796507    0.35593080
20

O     -2.22025301    1.40728918    0.18857035
C     -0.81968120    1.16911377    0.45665501
C     -0.45918922   -0.23175137    0.82762295
C     -0.12166965    0.28192603   -0.53627365
C      1.23601548   -0.33760108   -0.43057980
C      0.92820543   -0.69656095    1.04214916
O      7.24206550    0.25755964   -0.18146835
H      1.05145204   -1.75688059    1.28408964
H      1.48658259   -0.10909850    1.77990029
H     -0.25022309    1.97433468    0.90709347
O     -1.49161576   -1.22265135    0.90959235
H      6.73491423    0.38851734    0.63376699
H     -2.34132509   -0.82676799    0.64171077
O      2.35586460    0.53809258   -0.66444410
H      1.32844706   -1.22940979   -1.06495806
H      3.13870340   -0.00577953   -0.46964813
O     -0.93090220   -0.14140246   -1.65504191
H     -2.41932824    1.12739310   -0.72637734
H     -0.47108312    0.05975427   -2.49006099
H      7.02058679   -0.64607698   -0.45229864
