20

O     -3.42932308   -0.44363554   -1.25476803
C     -2.38530388   -0.89889751   -0.78529076
C     -1.11389380   -0.07230186   -0.67416349
C     -0.21998809   -0.62280233    0.44382678
C      1.07049297    0.18450762    0.68908754
C      1.93291196    0.38356216   -0.56473835
O      1.40253274    1.35652154   -1.45403229
H      2.03600206   -0.55758085   -1.11568306
H      2.94511712    0.69647072   -0.28758850
H     -2.30492983   -1.96377638   -0.50893253
O     -1.42182839    1.30582387   -0.47436974
H     -0.60317734   -0.17474431   -1.63716472
H     -2.22360261    1.47313625   -1.01102863
O      1.84181925   -0.54822087    1.66130796
H      0.82574024    1.15714588    1.13336320
H      1.76733229   -0.07145278    2.50723316
O     -0.95613163   -0.66734095    1.68445505
H      0.03650886   -1.66680750    0.22440860
H     -0.33708766   -1.00660827    2.35671908
H      1.13680883    2.13700112   -0.93264125
20

O     -2.05697387   -0.69562649    2.56944695
C     -1.62280741    0.03767615    1.68376692
C     -0.39503619   -0.29027987    0.86808406
C     -0.53722118    0.33530762   -0.52341294
C      0.61136005    0.00819393   -1.50251675
C      0.80858263    0.24369008    1.63965555
O      2.00206098   -0.36508804    1.17054518
H      0.71763451    0.03032193    2.71069546
H      0.90840158    1.32858625    1.52227804
H     -2.05667781    1.04161942    1.53400114
O      0.63775303   -1.36684657   -1.82403530
H     -0.34617089   -1.38271444    0.77858585
H     -0.28000974   -1.68176599   -1.72317736
O      0.33702987    0.68735615   -2.72095417
H      1.58678711    0.33596487   -1.13723747
H      1.13316616    0.53268142   -3.26000298
O     -1.75428101   -0.15997032   -1.12790733
H     -0.65804882    1.42304749   -0.44819992
H     -1.72579234    0.16054908   -2.05508172
H      2.69024332   -0.22270267    1.84546676
