20

O     -1.42514243    0.53942099   -0.62065158
C     -1.52216957    0.62252656    0.78270867
C     -0.85018763   -0.30338054    1.48690100
C     -0.04297569    0.62197252   -1.01650004
C      0.86561594   -0.39626911   -0.27548463
C      0.63965432   -0.32471450    1.24058256
O      7.11668921    0.25755964   -0.18146835
H      1.11397766   -1.18390676    1.72973581
H      1.11322842    0.56751251    1.66982691
H     -1.28125718    1.67845477    0.95047619
O     -1.37435238   -1.58307565    1.58990405
H      6.60953793    0.38851734    0.63376699
H     -2.31519737   -1.53972927    1.33620775
O      2.24385081   -0.14900337   -0.58168034
H      0.63467034   -1.41053296   -0.62702300
H      2.30159393   -0.20212404   -1.55556429
O      0.05687253    0.36310702   -2.41716715
H      0.32473039    1.64445864   -0.85757936
H     -0.48291210    1.05528319   -2.83469254
H      6.89521049   -0.64607698   -0.45229864