11

C       -3.0908609427      1.4967186733     -0.2414706248                 
C       -2.0163712207      2.2878775382     -0.2707017179                 
C       -0.6370929108      1.7184103706     -0.3944669133                 
H       -0.4240486628      1.0475153042      0.4641629656                 
H        0.1086195951      2.5405592175     -0.4007083009                 
H       -0.5474650014      1.1441895851     -1.3407195439                 
H       -4.0819623773      1.9294177995     -0.1511931101                 
H       -2.9913041154      0.4171885914     -0.3064682992                 
H       -2.1438619723      3.3643391872     -0.2038804172                 
H       -2.0286877330     -0.0870657645      2.2952778610                 
H       -2.0254457593      0.5614298874      2.5793906731                 