11

C       -4.6883140514      1.0144521453     -0.1266420582                 
C       -3.2620509677      1.3482792586     -0.4349023290                 
H       -4.8275816249      0.9238026127      0.9714209369                 
H       -4.9668982488      0.0563508656     -0.6139933820                 
H       -5.3519742711      1.8184582164     -0.5077831710                 
C       -2.2678784030      0.5343233806     -0.0738156456                 
H       -1.9752205995      3.3900932080      1.3840215868                 
H       -1.4575569084      3.4611435825      0.9062178993                 
H       -3.0331076968      2.2707120038     -0.9605762180                 
H       -2.4692347096     -0.3934536441      0.4535407854                 
H       -1.2403983034      0.7959982121     -0.3054408859                               