17

O         -0.78614        2.30294       -0.21644
C         -1.88108        1.57657       -0.22813
C         -1.56446        0.24042       -0.37248
C         -0.19095        0.18785       -0.45090
C          0.24269        1.49487       -0.34650
C         -3.25873        2.13330       -0.09940
H         -3.21443        3.23805        0.00000
H         -3.75023        1.70796        0.80037
H         -3.85264        1.87345       -1.00030
C          1.66501        1.94470       -0.36809
H          1.71618        3.04884       -0.26656
H          2.13926        1.64442       -1.32528
H          2.21829        1.48108        0.47489
H         -2.25131       -0.59449       -0.41403
H          0.42057       -0.69770       -0.56490
H          0.66507        0.23053        2.30660
H          1.19785       -0.17211        2.07117                