9

C       -6.7416598726      0.9566932614     -0.0135282063                 
C       -5.4718634001      1.7971556560     -0.0573091301                 
H       -7.6236310006      1.5997513335     -0.2172529760                 
H       -6.8582145342      0.4939698504      0.9893127556                 
H       -6.6938389764      0.1556581801     -0.7813235886                 
O       -4.3456299091      0.9950347545      0.1717291277                 
H       -5.5219421813      2.6208626486      0.6904135870                 
H       -5.3758780595      2.2648078120     -1.0598632960                 
H       -4.3146950619      0.8207306190      1.1486390937                                      