20

O     -2.79406932    1.20578322    1.09721790
C     -1.58894127    0.98371855    1.23062322
C     -0.75009237   -0.13042578    0.49617799
C      0.02274117    0.38951343   -0.76850633
C      1.21318506   -0.50572271   -0.32376627
C      0.64851261   -0.43958390    1.10864091
O      7.11963186    0.10176986   -0.35510899
H      0.71513965   -1.37800492    1.66778835
H      1.06986257    0.36243680    1.72535872
H     -1.00325115    1.61135703    1.92326456
O     -1.54696431   -1.32810070    0.26252279
H      6.23677916    0.28619522   -0.00082182
H     -2.26473240   -1.01296896   -0.32196382
O      2.52562772    0.05828869   -0.50771680
H      1.16921113   -1.51926135   -0.74398401
H      2.82559116   -0.27337534   -1.37255624
O     -0.56684006    0.09008984   -2.05335959
H      0.25313597    1.46221375   -0.71237394
H      0.07188381    0.42404234   -2.70736746
H      7.55956721   -0.38796507    0.35593080
20

O     -2.64110314    1.31504614    0.38767516
C     -1.46629572    1.14074494    0.72457030
C     -0.61996075   -0.14314728    0.41704806
C      0.39394686    0.04777687   -0.79858327
C      1.40737302   -0.78175188    0.03232574
C      0.64155437   -0.37153764    1.30158912
O      7.18931397    0.25755964   -0.18146835
H      0.55657907   -1.15742464    2.05779231
H      1.02840932    0.53390715    1.78317797
H     -0.93626701    1.92540527    1.29024929
O     -1.47618395   -1.32550140    0.33716855
H      6.68216269    0.38851734    0.63376699
H     -2.26091912   -1.01965042   -0.15720319
O      0.81285626    1.39921919   -1.05105395
H      1.38477576   -1.85651057   -0.18163113
H      1.47311990    1.29010862   -1.75929924
O      0.00272203   -0.55062125   -2.04333368
H      2.44608558   -0.44085382   -0.00238886
H     -0.74669249   -0.00520929   -2.33810324
H      6.96783525   -0.64607698   -0.45229864
