20

O     -2.79406932    1.20578322    1.09721790
C     -1.58894127    0.98371855    1.23062322
C     -0.75009237   -0.13042578    0.49617799
C      0.02274117    0.38951343   -0.76850633
C      1.21318506   -0.50572271   -0.32376627
C      0.64851261   -0.43958390    1.10864091
O      7.11963186    0.10176986   -0.35510899
H      0.71513965   -1.37800492    1.66778835
H      1.06986257    0.36243680    1.72535872
H     -1.00325115    1.61135703    1.92326456
O     -1.54696431   -1.32810070    0.26252279
H      6.23677916    0.28619522   -0.00082182
H     -2.26473240   -1.01296896   -0.32196382
O      2.52562772    0.05828869   -0.50771680
H      1.16921113   -1.51926135   -0.74398401
H      2.82559116   -0.27337534   -1.37255624
O     -0.56684006    0.09008984   -2.05335959
H      0.25313597    1.46221375   -0.71237394
H      0.07188381    0.42404234   -2.70736746
H      7.55956721   -0.38796507    0.35593080