20

O      1.34321429   -1.91674728    0.34382560
C      1.57959956   -1.23075119   -0.64643308
C      0.70522423   -0.11402899   -1.17760705
C     -0.70319220    0.01405780   -0.55092401
C     -0.83189666    0.01692281    0.98083802
C      0.29821979    0.71787300    1.72728423
O     -0.18113542    1.27343365    2.94746155
H      0.73501265    1.53401432    1.14679420
H      1.09665181    0.01382139    1.98129531
H      2.53303314   -1.35963590   -1.18745101
O      0.55638133   -0.36625593   -2.59424285
H      1.25752826    0.82676829   -1.06691020
H      1.15783630    0.24126969   -3.06118308
O     -1.24979900    1.24826807   -1.02529760
H     -0.92022831   -1.01075139    1.35600229
H     -2.19914929    1.18134318   -0.81682901
O     -1.57625381   -0.97299322   -1.08862412
H     -1.78484234    0.48923699    1.25881541
H     -1.23085957   -1.13941676   -1.98903290
H     -0.58534479    0.55357146    3.46221831
20

O     -0.91684618   -1.18059117   -0.90525364
C     -1.64573137   -0.00835885   -0.51482625
C     -1.01783288    0.58480753    0.74586679
C      0.48305968    0.87232772    0.50901646
C      1.19817672   -0.32927972   -0.09419568
C      0.41534797   -0.85584201   -1.28722544
O      1.02510629   -2.03169252   -1.78757143
H     -1.66957694    0.70905278   -1.34280482
H      0.39756253   -0.12789535   -2.10649646
H     -2.67206275   -0.32892045   -0.30896357
O     -1.15981045   -0.33397111    1.84465656
H     -1.54358149    1.50314884    1.02922213
H     -1.12438299   -1.23464670    1.46655202
O      0.60732727    1.99600267   -0.34370956
H      1.30413316   -1.11709762    0.66345825
H      1.54009460    2.26202859   -0.25032873
O      1.12511272    1.22661664    1.72532699
H      2.21959741   -0.07234719   -0.40087647
H      0.44680052    1.14616028    2.42372411
H      0.98750621   -2.67950235   -1.06557127
