20

O     -3.23724799    1.82618874    0.79929142
C     -2.08220752    1.50386000    1.06061265
C     -1.36454308    0.36796409    0.34224841
C      0.09018552    0.24795483    0.84265453
C      0.89574897   -0.97496277    0.33026529
C      1.71132468   -0.79450142   -0.96304681
O      0.89676853   -0.55585182   -2.09492560
H      2.25484475   -1.72028628   -1.17858903
H      2.44319605    0.01212016   -0.85319330
H     -1.50862533    2.04483134    1.83397364
O     -1.47796820    0.60421053   -1.05480721
H     -1.91204290   -0.55025370    0.58355286
H     -2.42618984    0.76200510   -1.22635210
O      0.08522076   -2.15232968    0.28305304
H      1.64800208   -1.18009044    1.10271042
H      0.05665165   -2.43686194   -0.65177331
O      0.80600376    1.47704855    0.65016474
H      0.01453420    0.12301819    1.93235701
H      1.72240915    1.34940180    0.94748337
H      1.38393476    0.04653475   -2.68568002
20

O     -3.48149073   -1.54867785   -0.64909933
C     -2.75924073   -0.90727414    0.11116094
C     -1.29177970   -1.19066616    0.27802653
C     -0.47940968    0.08978282    0.09319188
C      1.03797353   -0.20045660    0.28050238
C      1.90862455    1.05884600    0.43445686
O      1.77050041    1.96606703   -0.65331006
H      2.96544564    0.77492168    0.47783340
H      1.66516990    1.59602449    1.35590077
H     -3.18467249   -0.13201090    0.77127200
O     -0.69910889    0.59680281   -1.21641535
H     -1.00845129   -1.95062601   -0.45855144
H     -0.24898071   -0.03669019   -1.81160594
O      1.49473241   -0.94202626   -0.86915005
H      1.18883389   -0.82301677    1.17078077
H      2.42600115   -1.18368025   -0.70753615
O     -0.92032559    1.07107833    1.00903796
H     -1.15805120   -1.60003724    1.28517702
H     -0.74270889    1.91045809    0.54021782
H      1.51693844    1.45118114   -1.44188999
