20

O     -3.23724799    1.82618874    0.79929142
C     -2.08220752    1.50386000    1.06061265
C     -1.36454308    0.36796409    0.34224841
C      0.09018552    0.24795483    0.84265453
C      0.89574897   -0.97496277    0.33026529
C      1.71132468   -0.79450142   -0.96304681
O      0.89676853   -0.55585182   -2.09492560
H      2.25484475   -1.72028628   -1.17858903
H      2.44319605    0.01212016   -0.85319330
H     -1.50862533    2.04483134    1.83397364
O     -1.47796820    0.60421053   -1.05480721
H     -1.91204290   -0.55025370    0.58355286
H     -2.42618984    0.76200510   -1.22635210
O      0.08522076   -2.15232968    0.28305304
H      1.64800208   -1.18009044    1.10271042
H      0.05665165   -2.43686194   -0.65177331
O      0.80600376    1.47704855    0.65016474
H      0.01453420    0.12301819    1.93235701
H      1.72240915    1.34940180    0.94748337
H      1.38393476    0.04653475   -2.68568002