20

O     -1.82304123   -2.57369924   -0.23496181
C     -1.19095588   -1.52466567   -0.31533464
C     -0.77912241   -0.77253034    0.91906197
C      0.46149170    0.06648200    0.72460222
C      0.28976229    0.94465099   -0.50678767
C      0.07142648    0.04176878   -1.70478520
O      0.37111092   -2.10714593   -4.24354250
H     -0.20159688    0.64585438   -2.57739053
H      0.99322934   -0.48557112   -1.97907688
H     -1.62413357   -0.14956441    1.23602664
O     -0.96182141   -0.94092495   -1.51293718
H     -0.59807430   -1.49344027    1.72503410
H     -0.47686807   -2.53968974   -4.06243901
O      1.45239130    1.74953109   -0.69228909
H     -0.56296032    1.62101161   -0.37242346
H      1.62353638    2.15757584    0.18071371
O      0.67227318    0.92032697    1.85571315
H      1.35653570   -0.55889599    0.62122767
H      0.82105964    0.35209030    2.63360700
H      0.68674518   -2.53971537   -5.05114370