20

O     -2.39532577   -0.25836643    2.10585374
C     -1.83023680    0.23387875    1.14409596
C     -1.55809581   -0.47541130   -0.15282541
C     -0.32543332    0.02184915   -0.90667800
C      1.00795454   -0.59700704   -0.43674911
C      1.38842479   -0.33433241    1.02046650
O      1.54657863    1.06280455    1.25086798
H      2.35031948   -0.80624182    1.24747121
H      0.64721835   -0.72922868    1.71914865
H     -1.45387731   -1.54664242    0.05759168
O     -1.43972390    1.51726108    1.16530481
H     -2.45383990   -0.36074700   -0.77501490
H     -1.57679388    1.80860000    2.09172225
O      2.06053286   -0.04208918   -1.25606758
H      1.00579823   -1.67756148   -0.62172714
H      1.87167918   -0.35330437   -2.16151837
O     -0.48677148   -0.36182253   -2.29275448
H     -0.26107832    1.11586220   -0.90372845
H     -0.23371081    0.41141569   -2.82906877
H      2.13638122    1.37108324    0.53360943