20

O     -1.61746893   -2.44582535   -1.25055368
C     -0.64234638   -2.35589851   -0.50485474
C      0.58475633   -1.49041789   -0.77685752
C      0.32996899   -0.05065641   -0.36416584
C     -0.20550409    0.31588606    0.81560775
C     -0.51960133    1.71600146    1.22911706
O      0.70326937    2.42177560    1.35542261
H     -1.04418974    1.71784537    2.18988910
H     -1.14709277    2.22091607    0.48807877
H     -0.62525569   -2.89426606    0.45768163
O      0.89369648   -1.57445297   -2.16531594
H      1.43675759   -1.90198849   -0.22721952
H      0.18319139   -1.08084470   -2.61582592
O     -1.58687985    0.75510760   -3.30255007
H     -0.47234841   -0.44417320    1.54465898
H     -2.21562730    1.11144971   -3.94804054
O      0.72033226    0.90881098   -1.28726725
H     -0.77907498    0.61055429   -3.81783313
H      0.90337084    1.73351188   -0.79366696
H      0.51846408    3.20377618    1.90527148