20

O      0.98623864    3.03405938    1.61582811
C      0.66383364    1.84967062    1.49537514
C     -0.64713515    1.44698521    0.83331130
C     -0.72268302   -0.05247048    0.50017659
C      0.04080916   -0.44206501   -0.78688617
C      0.21418974   -1.95952077   -0.93451831
O      0.48762989   -2.28585987   -2.29753041
H     -0.69575733   -2.49617792   -0.64959375
H      1.05493070   -2.31516266   -0.32888937
H      1.29634077    1.04433021    1.90262152
O     -0.87881554    2.25567158   -0.31936587
H     -1.43005668    1.67232091    1.56731111
H     -0.62301240    3.16437348   -0.05632330
O      1.34312862    0.16027365   -0.79591530
H     -0.49759117   -0.05628969   -1.66232230
H      1.25358784    0.98432852   -1.31248922
O     -0.31276628   -0.80280471    1.65228907
H     -1.77810839   -0.30291001    0.33084054
H     -0.62489306   -1.71866653    1.55283396
H      0.87013002   -3.18008591   -2.30675334
20

O     -2.21440105   -0.20742073   -2.17774332
C     -2.42592075   -0.49944187   -1.00301209
C     -1.40530373   -1.12946386   -0.04485362
C      0.25473300    1.12834544    0.94879602
C      0.78822085   -0.23572913    0.46043237
C      2.14284474   -0.09711695   -0.26668252
O      2.90765286    1.02131457    0.17025034
H      2.00966040   -0.02015131   -1.35238009
H      2.74143617   -0.99826823   -0.09370181
H     -3.43031902   -0.36013720   -0.57005800
O     -1.64022673   -2.52499549    0.02475981
H     -1.60306845   -0.73350757    0.95337224
H     -1.50841302   -2.83672179   -0.88918699
O     -0.07571721   -0.92648181   -0.45698394
H      0.92935843   -0.87862819    1.33849572
H     -0.70913208    1.03477361    1.45433699
O      0.08577981    2.03192483   -0.13785850
H      0.95029496    1.57712291    1.66633560
H     -0.28178533    2.85734339    0.22438796
H      2.48430615    1.79723936   -0.24870613
