20

O     -1.92134608   -2.81400525    1.12198507
C     -0.96518026   -2.07728628    1.37323891
C      0.05080709   -1.65696690    0.31254956
C      0.17293559   -0.14923755    0.23934268
C      0.44167052    0.52842272   -0.89358714
C      0.60111861    2.00466929   -1.07784435
O      0.29092322    2.69960164    0.12711183
H     -0.07095453    2.35630988   -1.86625288
H      1.63359477    2.23702024   -1.35667801
H     -0.75686658   -1.74320128    2.40394109
O     -0.32031953   -2.19857989   -0.95674977
H      1.01561345   -2.09051155    0.59463085
H     -1.14913003   -2.69587345   -0.79684093
O      7.82135541    0.00058797    0.18234835
H      0.58286927   -0.04740340   -1.80795531
H      6.97409059   -0.32211024    0.52435593
O      0.00772521    0.51771266    1.44332130
H      7.60793657    0.32152226   -0.70670428
H      0.05788047    1.48137555    1.23543307
H      0.32865880    3.64795353   -0.09564600
20

O     -3.60515867   -0.67377172    1.66326936
C     -2.42300164   -0.51188760    1.97066379
C     -1.27325258   -0.69418130    0.98563392
C      0.51534678    0.73703116    0.22401130
C      1.05517410   -0.07785952   -0.69506924
C      2.24704088    0.23098090   -1.54912218
O      2.71717788    1.55274650   -1.34118597
H      1.98991669    0.12006813   -2.60775624
H      3.06016544   -0.46407631   -1.32109597
H     -2.13364165   -0.22803349    2.99592420
O     -1.77821203   -1.06226602   -0.29003742
H     -0.62334126   -1.48865706    1.36967165
H     -2.72312516   -0.81434747   -0.28018545
O      7.66071461   -0.02676673    0.10665056
H      0.60888033   -1.04708036   -0.89827954
H      7.29810857    0.22047419   -0.75726483
O     -0.59270959    0.55894882    1.00104816
H      6.87637076   -0.19370745    0.65061427
H      0.93515173    1.71381276    0.44502679
H      2.02358873    2.14857256   -1.67251715
