20

O     -1.66951633   -1.95000381    1.20056851
C     -1.09205861   -0.92201939    1.55137921
C      0.36489806   -0.64041088    1.23088061
C      0.55354083    0.32151821    0.07748089
C     -0.58099045    0.78692610   -0.82305851
C      0.44447487   -0.16711929   -1.35012881
O      7.38312077   -0.25911128   -0.22059204
H      0.13399358   -1.19027392   -1.52839501
H      1.18069012    0.19026347   -2.06025718
H     -1.62639406   -0.12018300    2.08852609
O      1.05646808   -1.86212540    0.96532298
H      0.80623670   -0.21824639    2.14044717
H      0.40767997   -2.45591735    0.54187132
O     -0.45787231    2.14487718   -1.28726520
H     -1.58282856    0.39936199   -0.67486743
H     -0.90064487    2.25812917   -2.14812157
O      1.58200133    1.31357212    0.30145463
H      7.18333507    0.66787728   -0.41993818
H      1.38032169    2.11165120   -0.22583771
H      6.96475139   -0.40876600    0.64053021
20

O      1.66364088   -2.20013722   -0.79750735
C      2.00416437   -1.63984229    0.23158694
C     -1.26877108   -0.31481721    0.74238805
C     -0.50727877    0.51606982   -0.25563174
C      0.99849788    0.43547757   -0.37480150
C      0.34896479    1.66300982    0.20528554
O      7.55330823    0.14218672   -0.07618027
H      0.45054728    1.83810357    1.26956377
H      0.36024608    2.56564379   -0.39411020
H      2.58900768   -2.11163680    1.03604550
O     -2.18228961   -1.17451807    0.06357865
H     -1.85768624    0.33162988    1.39967579
H     -1.90325983   -1.18437683   -0.87281148
O      1.72990084   -0.35672423    0.58364387
H      1.41698148    0.52252885   -1.37444293
H     -0.61798182   -0.93246823    1.36708056
O     -1.21452933    0.75050278   -1.49234440
H      7.14170423   -0.66219620   -0.42619637
H     -2.01015458    1.29155478   -1.33719906
H      6.87398291    0.52000947    0.50237663
