20

O     -1.66951633   -1.95000381    1.20056851
C     -1.09205861   -0.92201939    1.55137921
C      0.36489806   -0.64041088    1.23088061
C      0.55354083    0.32151821    0.07748089
C     -0.58099045    0.78692610   -0.82305851
C      0.44447487   -0.16711929   -1.35012881
O      7.38312077   -0.25911128   -0.22059204
H      0.13399358   -1.19027392   -1.52839501
H      1.18069012    0.19026347   -2.06025718
H     -1.62639406   -0.12018300    2.08852609
O      1.05646808   -1.86212540    0.96532298
H      0.80623670   -0.21824639    2.14044717
H      0.40767997   -2.45591735    0.54187132
O     -0.45787231    2.14487718   -1.28726520
H     -1.58282856    0.39936199   -0.67486743
H     -0.90064487    2.25812917   -2.14812157
O      1.58200133    1.31357212    0.30145463
H      7.18333507    0.66787728   -0.41993818
H      1.38032169    2.11165120   -0.22583771
H      6.96475139   -0.40876600    0.64053021