20

O     -2.38451764    0.80862134    2.21718434
C     -1.56906290    0.96766152    1.30869405
C     -0.72923794   -0.13701002    0.54469270
C     -0.03786174    0.37023279   -0.77241656
C      1.20785470   -0.46090390   -0.35757632
C      0.70786834   -0.36748453    1.09864402
O      6.83372035    0.33989949   -0.19843595
H      0.84172182   -1.28080834    1.68617335
H      1.11794866    0.47567542    1.66669446
H     -1.38072134    1.99436177    0.95103962
O     -1.48354262   -1.37148225    0.36089257
H      7.67583943   -0.07724574    0.03775530
H     -2.10718570   -1.16392488   -0.36024174
O      2.48233856    0.15300674   -0.62835575
H      1.18775289   -1.48937525   -0.74150067
H      2.76503203   -0.21034587   -1.48606416
O     -0.69634938   -0.00137522   -2.00490313
H      0.15589671    1.45094446   -0.77334441
H     -0.07793443    0.26220619   -2.70961235
H      6.16519520   -0.26265375    0.16068065
20

O     -2.70527044    1.05935537   -0.03320967
C     -1.52728490    0.95832890    0.24326084
C     -0.76378697   -0.12222415    0.73428407
C     -0.34647667    0.86155376   -0.54411817
C      0.80652731   -0.09964270   -0.63552091
C      0.70629819   -0.25073827    0.91258882
O      6.97302829    0.25755964   -0.18146835
H      1.05459668   -1.21517516    1.29687133
H      1.18287402    0.54290216    1.49963509
H     -1.94871158    2.16548877   -2.71985809
O     -1.38730097   -1.40086048    0.40264012
H      6.46587702    0.38851734    0.63376699
H     -2.35092948   -1.28056113    0.26967997
O      2.04265454    0.44996923   -1.13383631
H      0.55523846   -1.00778490   -1.20159840
H      2.59237789   -0.32335225   -1.35117265
O     -1.30755609    1.68475422   -3.26462861
H      0.14048233    1.82822962   -0.45950413
H     -1.37618128    2.10681622   -4.13417749
H      6.75154958   -0.64607698   -0.45229864
