20

O     -1.09208554   -1.73032182    1.95223770
C      0.03782200   -1.94876384    1.50653097
C      0.59550527   -1.29682429    0.25778109
C      0.76836049    0.24417977    0.44284587
C     -0.40983475    1.11419384   -0.03100885
C     -0.66436224    1.05653684   -1.53588529
O     -1.92274580    0.42491767   -1.76099749
H      0.10087812    0.49981094   -2.08479402
H     -0.70368907    2.06254191   -1.96820046
H      0.70567380   -2.68142005    1.99002321
O     -0.17679410   -1.71052000   -0.86406578
H      1.58788342   -1.73908335    0.10882719
H     -1.08159735   -1.34431524   -0.76689660
O      1.08456133    0.53188778    1.80234389
H     -0.17183656    2.15984152    0.20982622
H      0.65922771    1.37494724    2.03576709
O      1.92032718    0.70099024   -0.26241531
H     -1.31205449    0.87033032    0.54235798
H      2.67317266    0.28424554    0.19104474
H     -2.59841210    1.12682498   -1.76532216
20

O      0.98850516    1.32031416    1.53305278
C      0.40241460    1.45568203    0.46507272
C     -0.18628135    0.30355771   -0.30308659
C     -1.64136662    0.10265788    0.13718162
C      0.68311673   -0.96469976   -0.18817468
C      2.04550122   -0.80286560   -0.86349504
O      3.02641737   -0.29497648    0.02987244
H      1.99545760   -0.14789127   -1.73869764
H      2.40262888   -1.78078895   -1.20174766
H      0.28014408    2.45155477    0.00075748
O     -1.83661643   -0.65293415    1.29966940
H     -0.18276927    0.62190517   -1.35512005
H     -0.97644362   -0.80574511    1.72148339
O     -2.29224725    1.32284394    0.35750505
H      0.15194278   -1.79187606   -0.67300825
H     -2.83263652    1.11466337    1.14353523
O     -2.32167762   -0.52234224   -0.92083335
H      0.83960725   -1.23905067    0.86194960
H     -3.17901453   -0.06585423   -0.92547631
H      2.63331758    0.37584552    0.61955985
