20

O      0.98850516    1.32031416    1.53305278
C      0.40241460    1.45568203    0.46507272
C     -0.18628135    0.30355771   -0.30308659
C     -1.64136662    0.10265788    0.13718162
C      0.68311673   -0.96469976   -0.18817468
C      2.04550122   -0.80286560   -0.86349504
O      3.02641737   -0.29497648    0.02987244
H      1.99545760   -0.14789127   -1.73869764
H      2.40262888   -1.78078895   -1.20174766
H      0.28014408    2.45155477    0.00075748
O     -1.83661643   -0.65293415    1.29966940
H     -0.18276927    0.62190517   -1.35512005
H     -0.97644362   -0.80574511    1.72148339
O     -2.29224725    1.32284394    0.35750505
H      0.15194278   -1.79187606   -0.67300825
H     -2.83263652    1.11466337    1.14353523
O     -2.32167762   -0.52234224   -0.92083335
H      0.83960725   -1.23905067    0.86194960
H     -3.17901453   -0.06585423   -0.92547631
H      2.63331758    0.37584552    0.61955985