20

O      0.42042381    3.13325207    1.09155999
C      0.21020961    1.93867445    0.87060383
C     -0.63131929    1.45823268   -0.29808448
C     -0.15498063    0.16515243   -0.98821987
C     -0.23239767   -1.13338010   -0.14655106
C      0.93887114   -1.34741886    0.81902737
O      0.53965352   -1.02210766    2.14456807
H      1.80581801   -0.73540769    0.55109899
H      1.25674818   -2.39602049    0.81904109
H      0.55395874    1.19215215    1.58998398
O     -0.61963015    2.53619929   -1.25533119
H     -1.66467038    1.34079143    0.04442922
H     -0.68720714    3.36568730   -0.74288782
O     -0.22915874   -2.23796377   -1.08273878
H     -1.19705284   -1.16945333    0.37398326
H     -0.54516243   -3.02034575   -0.59303173
O     -1.02214298   -0.05992008   -2.13135451
H      0.85086547    0.29641367   -1.40449863
H     -0.84500449   -0.98431527   -2.40231278
H      1.25217825   -1.32022245    2.74071503
20

O     -1.14968782    2.17697788    0.95856260
C     -0.60099247    1.14943964    0.59127895
C     -1.35147667   -0.16630374    0.34392424
C     -0.28435887   -0.98750589   -0.37531985
C      1.02622124   -0.54011772    0.25763437
C      0.90427798    0.98783117    0.33108092
O      1.79034053    1.50060665    1.30373748
H      3.15263925    3.69090324   -0.73580093
H      1.14192580    1.45309666   -0.63230239
H      2.79517949    3.95845782   -0.14568478
O     -2.52174329   -0.15284882   -0.44740581
H     -1.57384799   -0.60382335    1.32329113
H     -3.25706541    0.12690656    0.12905039
O      2.14308333   -0.92915899   -0.53937744
H      1.15487765   -0.96764299    1.25921313
H      1.81720257   -0.94351883   -1.46502611
O     -0.26021038   -0.67088430   -1.77750747
H     -0.45650689   -2.06389794   -0.28942650
H     -1.20275936   -0.55249533   -2.02964788
H      2.68072006    1.18333936    1.05824027
