20

O     -2.90234141    0.05881691    0.58409981
C     -1.77013063    0.32170241    0.99391854
C     -0.57178360   -0.58304816    0.72695535
C      0.53614102    0.22460931    0.10181010
C      1.17291739   -0.08019249   -1.03405923
C      2.89953773   -0.67527292    2.83890904
O      1.80789498   -1.03219452    3.66669256
H      3.83213754   -1.00987274    3.29980141
H      2.78175802   -1.15990610    1.86685983
H     -1.58573115    1.19528075    1.64239361
O     -0.95246904   -1.66968368   -0.11708516
H     -0.24196959   -0.99772957    1.68459501
H     -1.92992902   -1.63240356   -0.16935584
O      2.18568098    0.71189900   -1.51359188
H      0.95936479   -0.95347063   -1.63815624
H      2.53884101    0.28163348   -2.31514190
O      0.92022087    1.36538305    0.79638397
H      2.91602717    0.40892980    2.70343294
H      1.64118836    1.75720318    0.25723386
H      1.94001344   -0.58765897    4.52132530