20

O      2.80194358    0.94621323    1.26139635
C      1.60136015    1.15996162    1.30749871
C      0.73190761    1.52616225    0.14563087
C      0.27604521    0.28458968   -0.61448102
C     -0.84694163   -0.48813036    0.11160360
C     -1.28445460   -1.75168422   -0.64518719
O     -0.18546837   -2.59116762   -0.97862002
H     -1.81799360   -1.49102199   -1.56593075
H     -1.99196423   -2.32686457   -0.03609224
H     -0.10840246    2.14455661    0.48043663
O      0.92560796    1.03959926    2.46220009
H      1.31924038    2.18084424   -0.51073421
H      1.60594998    0.81760975    3.13207338
O     -1.98948539    0.36163893    0.26678442
H     -0.50515646   -0.78332583    1.10908123
H     -2.11378694    0.78328156   -0.60837488
O     -0.23783711    0.72138042   -1.88500536
H      1.12636685   -0.38313609   -0.79871383
H      0.52794337    0.81219751   -2.48181712
H      0.16512567   -2.96270439   -0.15174869
20

O     -2.53427007   -2.48076099    0.19274955
C     -2.41054359   -1.26755029    0.17847814
C     -1.27516021   -0.48745012    0.77049228
C     -0.21313665   -0.22630354   -0.29429386
C      0.95626178    0.63813685    0.19513203
C      1.95028795    0.92061074   -0.95672888
O      2.48395073   -0.28608659   -1.49938746
H      2.79427448    1.51745341   -0.59262497
H      1.47094434    1.48965864   -1.76000481
H     -1.67083085    0.44148948    1.19504188
O     -3.31548921   -0.48653218   -0.43849916
H     -0.87063280   -1.07049450    1.60511972
H     -3.97690931   -1.11711184   -0.79286461
O      0.47289454    1.84171786    0.75726295
H     -0.69134907    0.26872272   -1.14953226
H      1.21855303    2.46514054    0.77980158
O      1.67008961   -0.03362341    1.22132555
H      0.16069265   -1.19465586   -0.65141563
H      1.05114800   -0.09827282    1.96803405
H      2.72922465   -0.83408810   -0.72808609
