20

O     -2.53427007   -2.48076099    0.19274955
C     -2.41054359   -1.26755029    0.17847814
C     -1.27516021   -0.48745012    0.77049228
C     -0.21313665   -0.22630354   -0.29429386
C      0.95626178    0.63813685    0.19513203
C      1.95028795    0.92061074   -0.95672888
O      2.48395073   -0.28608659   -1.49938746
H      2.79427448    1.51745341   -0.59262497
H      1.47094434    1.48965864   -1.76000481
H     -1.67083085    0.44148948    1.19504188
O     -3.31548921   -0.48653218   -0.43849916
H     -0.87063280   -1.07049450    1.60511972
H     -3.97690931   -1.11711184   -0.79286461
O      0.47289454    1.84171786    0.75726295
H     -0.69134907    0.26872272   -1.14953226
H      1.21855303    2.46514054    0.77980158
O      1.67008961   -0.03362341    1.22132555
H      0.16069265   -1.19465586   -0.65141563
H      1.05114800   -0.09827282    1.96803405
H      2.72922465   -0.83408810   -0.72808609