20

O     -1.32993672    0.42731474    2.03892829
C     -1.14173956   -0.74665706    1.73223729
C     -0.33947689   -1.25577628    0.54774086
C      0.30777605   -0.25568805   -0.38640243
C      0.79114974    1.11196590    0.04975178
C     -0.40812596    0.98809937   -0.85165596
O      7.25738329   -0.25911128   -0.22059204
H     -1.37883614    1.22781522   -0.43478487
H     -0.30114022    1.27282553   -1.89227090
H     -1.56103513   -1.54752792    2.36696517
O     -1.22844202   -2.10019935   -0.19602108
H      0.44393779   -1.89977620    0.96275994
H     -1.60508266   -1.55144182   -0.90699733
O      1.99983312    1.55909197   -0.59685376
H      0.62786876    1.43072423    1.07251194
H      2.07597711    2.52903835   -0.54009920
O      1.13070781   -0.87593871   -1.40517436
H      7.05759759    0.66787728   -0.41993818
H      1.91656492   -0.31386992   -1.56063538
H      6.83901392   -0.40876600    0.64053021
20

O     -0.34127398    1.69258728    1.33719329
C     -0.52854040    0.57377055    0.86579635
C     -1.73742141   -0.27184284    1.22899418
C      0.42222738   -0.02669864   -0.12652767
C      1.85924957    0.44330967   -0.17606739
C      0.91417409    0.79741749   -1.28790134
O      7.52929924    0.14218672   -0.07618027
H      0.59768667    1.83161986   -1.35947758
H      1.05094993    0.30992457   -2.24524853
H     -2.43053427    0.31596220    1.83865307
O     -2.42319345   -0.74163101    0.07373854
H     -1.40391608   -1.13213707    1.81660059
H     -2.93719431    0.01335600   -0.27070616
O      2.83784540   -0.56401328   -0.49789840
H      2.16643083    1.24424924    0.48877397
H      2.39456750   -1.42838319   -0.60382863
O      0.24629777   -1.43830337   -0.42195797
H      7.11769524   -0.66219620   -0.42619637
H     -0.68735525   -1.61918745   -0.66013629
H      6.84997392    0.52000947    0.50237663
