20

O     -1.32993672    0.42731474    2.03892829
C     -1.14173956   -0.74665706    1.73223729
C     -0.33947689   -1.25577628    0.54774086
C      0.30777605   -0.25568805   -0.38640243
C      0.79114974    1.11196590    0.04975178
C     -0.40812596    0.98809937   -0.85165596
O      7.25738329   -0.25911128   -0.22059204
H     -1.37883614    1.22781522   -0.43478487
H     -0.30114022    1.27282553   -1.89227090
H     -1.56103513   -1.54752792    2.36696517
O     -1.22844202   -2.10019935   -0.19602108
H      0.44393779   -1.89977620    0.96275994
H     -1.60508266   -1.55144182   -0.90699733
O      1.99983312    1.55909197   -0.59685376
H      0.62786876    1.43072423    1.07251194
H      2.07597711    2.52903835   -0.54009920
O      1.13070781   -0.87593871   -1.40517436
H      7.05759759    0.66787728   -0.41993818
H      1.91656492   -0.31386992   -1.56063538
H      6.83901392   -0.40876600    0.64053021