20

O     -2.75293129    1.88781233    0.05384373
C     -1.62737767    2.23245817    0.41383921
C     -0.59154873    1.24076636    0.90838124
C     -0.27281913    0.27377919   -0.24654984
C      0.94836385   -0.61592310    0.06070761
C      1.70267096   -0.97924389   -1.22369487
O      2.78197371   -1.85790187   -0.91260424
H      2.11892669   -0.08438877   -1.69744450
H      1.05416462   -1.49139849   -1.94088780
H     -1.29827073    3.28285242    0.34808405
O     -1.08539326    0.56041476    2.05149151
H      0.29758842    1.80976764    1.19905465
H     -1.80218939   -0.02749248    1.74361655
O      0.53728118   -1.84518180    0.68510173
H      1.64764765   -0.12370619    0.74527065
H     -0.39087692   -1.97793669    0.39556354
O     -1.39809639   -0.60097343   -0.49095766
H     -0.09397856    0.85349537   -1.16029728
H     -2.18324648   -0.03391150   -0.65456904
H      2.40811145   -2.50328806   -0.27794923
20

O     -3.91753025   -0.21996902   -0.88020217
C     -3.00678971    0.20199194   -0.17246178
C     -1.60462588   -0.38343913   -0.20673476
C     -0.63800162    0.69174167   -0.71735744
C      1.40842747   -0.30708464    0.08168741
C      1.87794780    0.77512033    1.06687519
O      2.73958968    0.21329780    2.05696497
H      1.03189085    1.24487253    1.57597549
H      2.43086217    1.56232380    0.54293051
H     -3.16583623    1.03464781    0.53399079
O     -1.55749534   -1.54093084   -1.03707194
H     -1.34766275   -0.69851891    0.80845542
H     -2.38528968   -1.54641682   -1.56129182
O      2.58032789   -0.91696810   -0.45702368
H      0.85758334   -1.09656129    0.60239082
H      2.22985327   -1.57060590   -1.08756363
O      0.68080962    0.22648924   -1.00801956
H     -0.59197491    1.53923757   -0.02412393
H     -1.01954432    1.09317186   -1.66395505
H      3.39745857   -0.30239990    1.54653518
