20

O     -3.91753025   -0.21996902   -0.88020217
C     -3.00678971    0.20199194   -0.17246178
C     -1.60462588   -0.38343913   -0.20673476
C     -0.63800162    0.69174167   -0.71735744
C      1.40842747   -0.30708464    0.08168741
C      1.87794780    0.77512033    1.06687519
O      2.73958968    0.21329780    2.05696497
H      1.03189085    1.24487253    1.57597549
H      2.43086217    1.56232380    0.54293051
H     -3.16583623    1.03464781    0.53399079
O     -1.55749534   -1.54093084   -1.03707194
H     -1.34766275   -0.69851891    0.80845542
H     -2.38528968   -1.54641682   -1.56129182
O      2.58032789   -0.91696810   -0.45702368
H      0.85758334   -1.09656129    0.60239082
H      2.22985327   -1.57060590   -1.08756363
O      0.68080962    0.22648924   -1.00801956
H     -0.59197491    1.53923757   -0.02412393
H     -1.01954432    1.09317186   -1.66395505
H      3.39745857   -0.30239990    1.54653518