20

O     -2.75293129    1.88781233    0.05384373
C     -1.62737767    2.23245817    0.41383921
C     -0.59154873    1.24076636    0.90838124
C     -0.27281913    0.27377919   -0.24654984
C      0.94836385   -0.61592310    0.06070761
C      1.70267096   -0.97924389   -1.22369487
O      2.78197371   -1.85790187   -0.91260424
H      2.11892669   -0.08438877   -1.69744450
H      1.05416462   -1.49139849   -1.94088780
H     -1.29827073    3.28285242    0.34808405
O     -1.08539326    0.56041476    2.05149151
H      0.29758842    1.80976764    1.19905465
H     -1.80218939   -0.02749248    1.74361655
O      0.53728118   -1.84518180    0.68510173
H      1.64764765   -0.12370619    0.74527065
H     -0.39087692   -1.97793669    0.39556354
O     -1.39809639   -0.60097343   -0.49095766
H     -0.09397856    0.85349537   -1.16029728
H     -2.18324648   -0.03391150   -0.65456904
H      2.40811145   -2.50328806   -0.27794923