9

C      1.45171445   -0.05364670    0.09341551
C      0.61385981    0.48736869   -0.78854622
H      2.52532866    0.00904605   -0.04184150
H      0.93423698    1.01355722   -1.67839177
H      0.92303905    1.30782053   -1.22210520
O     -0.73972088    0.41555090   -0.63011307
H     -1.15879888    0.87132526   -1.38122724
H      0.20914622    1.44613264   -1.08489445
H      1.07526778   -0.57086944    0.96983412
9

C      1.42194137   -0.10687148    0.18335074
C      0.36556692    0.29076747   -0.45244116
H      2.40646174    0.11037188   -0.20809730
H      0.25321902    0.96727874   -1.58170237
H      0.92303905    1.30782053   -1.22210520
O     -0.59213625    0.65125855   -1.02883627
H     -0.47778092    0.91760374   -1.47791664
H      0.20914622    1.44613264   -1.08489445
H      1.32461603   -0.65807692    1.10877285
