9

C     -0.29662629   -0.43861264   -0.07984496
C      0.42099634    0.62251014    0.11331535
H     -0.31279870    2.31340847   -2.27128538
H     -0.87367031   -0.86028037    0.73189536
H     -0.32228235   -0.90813005   -1.05380686
O      1.07158262    1.58451292    0.28844110
H      3.80314941   -3.31108606   -0.26042375
H     -0.74015463    1.72852531   -2.42254211
H      4.16884129   -3.68869344    0.26042375