9

C      0.43665038   -0.16436664    0.26279937
C     -0.61972395    0.23328335   -0.37298577
H      1.42116912    0.05287031   -0.12865606
H      0.60828050    1.62174939   -2.73184940
H      4.35155751   -3.51488623   -0.05513044
O     -1.57742396    0.59378666   -0.94937855
H      0.03743028    1.87028775   -3.13179778
H      3.62043306   -3.48489326    0.05513044
H      0.33932841   -0.71557369    1.18822101