20

O      0.82103595    3.69432040    0.49116416
C      1.09393764    2.53132514    0.78753329
C      0.06018274    1.41424817    0.77920749
C      0.59251198    0.22556124   -0.04133524
C      0.11529865   -1.16289150    0.46912980
C     -0.00642710   -2.21913891   -0.63745265
O     -1.19284506   -1.96068602   -1.39805942
H     -0.12930447   -3.21300724   -0.19634611
H      0.86773493   -2.22191484   -1.29576562
H      2.10074694    2.25595703    1.14432117
O     -1.17821650    1.88326709    0.23255116
H     -0.09613325    1.14586531    1.82921835
H     -1.06508563    2.84815504    0.09781664
O     -1.13858023   -1.09418748    1.15582779
H      0.84584551   -1.50257897    1.21216554
H     -1.82175417   -1.26487730    0.47368966
O      0.26768151    0.43021030   -1.42380653
H      1.68848932    0.20261053   -0.00926010
H     -0.71147834    0.48295296   -1.44900012
H     -1.11364042   -2.47519095   -2.22159927
20

O     -3.19358323   -0.56645623    0.29397839
C     -2.49912793   -1.15272137    1.12179259
C     -1.13983716   -1.77285633    0.82650401
C     -0.21871502   -0.08315510   -0.58644157
C      0.98714587    0.38399050    0.27758863
C      1.33162524    1.85218602   -0.00856537
O      1.94164425    1.99095507   -1.29153072
H      2.06085036    2.21184876    0.72371910
H      0.44426739    2.49075855    0.04402835
H     -2.84489721   -1.26485826    2.16268223
O     -0.55375605   -1.45589128   -0.42200426
H     -0.45939267   -1.52244513    1.64517742
H     -1.28600597   -2.85801508    0.85530490
O      2.15365300   -0.42975382    0.06743332
H      0.73522486    0.27961063    1.33595146
H      2.81281292    0.13173465   -0.38699358
O      0.07077251    0.10695450   -1.96964058
H     -1.08216011    0.55152436   -0.36316210
H     -0.68219953   -0.32853851   -2.41107500
H      1.42167850    1.43512803   -1.91474722
