20

O     -1.01989653   -1.94135936   -2.22955693
C     -0.06720890   -1.21902490   -1.97745105
C     -0.11689175    0.27438289   -1.86107979
C      0.05461903    0.83528790   -0.44846956
C     -0.52149656   -0.00741472    0.71262373
C     -0.43171837    0.77516012    2.03501886
O     -1.17288933    0.14475830    3.07621739
H     -0.83921501    1.78256418    1.91584649
H      0.60584150    0.85352490    2.37754247
H      0.63245503    0.69166300   -2.54562250
O      1.16476685   -1.73284197   -1.81941817
H     -1.09583497    0.58055463   -2.25098822
H      1.02212366   -2.70066412   -1.88889316
O      0.23863605   -1.21553844    0.87433701
H     -1.56042407   -0.29258169    0.51355687
H      1.14811049   -1.00592650    0.57429864
O      1.45589263    1.04438049   -0.20914824
H     -0.42026466    1.82518427   -0.44390859
H      1.55914890    1.91675077    0.21299094
H     -0.63575402   -0.60885973    3.38210380
20

O     -2.94764089    0.45115444    0.75443398
C     -1.80645136    0.11863140    0.47741321
C     -1.00796931   -0.90888939    1.21997604
C      0.38048265   -0.72326307    0.65636518
C      0.12202081   -0.12244701   -0.71580716
C      1.19806778    0.84027299   -1.20728125
O      0.87681347    1.28094030   -2.52858133
H      2.17657872    0.35292418   -1.24433750
H      1.26550083    1.73332016   -0.57740090
H     -1.05651507   -0.71117215    2.29411887
O     -1.66288850    2.57768135    1.94877333
H     -1.41229922   -1.89613850    0.98039648
H     -2.37816823    3.04313987    1.48976976
O     -1.11645089    0.59660924   -0.59414479
H     -0.05349794   -0.90747416   -1.46205828
H     -0.89544838    2.69868132    1.36967432
O      1.12438174    0.15859084    1.49444305
H      0.94128694   -1.66075776    0.58914224
H      1.31706255   -0.30551802    2.32965107
H     -0.00137081    1.70321651   -2.46632890
