20

O     -3.11168294    1.15719468    1.36761453
C     -1.99995233    0.68439635    1.59111176
C     -1.18066908   -0.06826528    0.55182743
C      0.18355656    0.63104318    0.34397353
C      0.97985361    0.06099010   -0.84105271
C      1.11772423   -1.45464538   -0.83638939
O      2.02634422   -1.82910664   -1.86675204
H      0.15937194   -1.94046741   -1.04297999
H      1.50707214   -1.81956823    0.11835267
H     -1.54112933    0.76714331    2.59165705
O     -1.90263541   -0.18000419   -0.67422027
H     -1.03390862   -1.07877545    0.95014591
H     -2.34728452    0.68188577   -0.80171117
O     -0.00512125    2.02798051    0.14507588
H      1.98574240    0.50366791   -0.84849852
H      0.65790537    2.33204801   -0.50012695
O      0.96580288    0.52375484    1.52044519
H      0.52994920    0.37911039   -1.79125182
H      0.94543874    1.42303351    1.89670193
H      2.06362217   -2.80141599   -1.87392301