20

O     -3.10644605    0.29957095   -0.20055638
C     -2.19189600    0.40910523   -1.01510254
C     -1.04064735   -0.56926114   -1.10069611
C      0.23681607    0.05965683   -0.48608364
C      0.16719898    0.06219695    1.05093556
C      1.47526687    0.45114307    1.74155653
O      1.93078624   -0.60447749    2.58301538
H      1.32398225    1.33078219    2.37607789
H      2.27989725    0.68589376    1.03995848
H     -2.15018572    1.26245669   -1.71399780
O     -0.79780699   -0.91130282   -2.47668160
H     -1.29872836   -1.50185923   -0.58714348
H     -1.56762772   -1.42771766   -2.77917699
O      1.36136410   -0.68343629   -0.93314959
H     -0.14578867   -0.92852279    1.40229330
H      1.12904306   -0.95328592   -1.84525412
O      0.42656544    1.37742591   -0.97755804
H     -0.60211798    0.77984261    1.36325526
H      1.32204012    1.63197925   -0.69670059
H      1.24828444   -0.77019011    3.25500849
20

O     -2.29348732    0.79922393    1.57661422
C     -2.81123291    0.15657927    0.67808780
C     -0.99287932   -1.36753498    0.49362648
C      0.18097088   -0.75346910   -0.31716620
C      0.41817817    0.72284529    0.05419856
C      1.67444332    1.35547522   -0.54890054
O      2.76074707    1.34641730    0.36931990
H      1.47685947    2.40354086   -0.79820311
H      2.00437842    0.85927954   -1.46456067
H     -3.79877752    0.37825751    0.24396978
O     -2.28666905   -0.91641817    0.04850225
H     -0.85754027   -1.21448037    1.57213774
H     -0.99736315   -2.45515787    0.35171685
O      1.35644230   -1.50683173   -0.08404433
H      0.47315950    0.81215776    1.14634789
H      1.13298071   -2.42945087   -0.29272507
O     -0.10393845   -0.89497489   -1.70120562
H     -0.43878818    1.30669746   -0.29924918
H      0.61218903   -0.45375179   -2.18359764
H      2.49032727    1.85159564    1.15513090
