20

O     -1.92421830    0.41882819    1.87484635
C     -1.79955287   -0.21550047    0.82541628
C     -0.55615859   -1.00786785    0.44820793
C      0.57058440   -0.14607790   -0.07185709
C      0.59636953    1.18780447   -0.16599554
C     -5.37547678   -2.51935558    0.97739009
O     -4.02259528   -2.12453232    0.84274730
H     -5.42106520   -3.55382934    1.32654183
H     -5.86452168   -1.86918094    1.70658763
H     -2.57761429   -0.15748841    0.04629351
O     -0.91715643   -1.95348675   -0.56029409
H     -0.22471921   -1.56727252    1.32961224
H     -0.16132610   -1.98467468   -1.17808672
O      1.68583664    1.83315126   -0.69716440
H     -0.19995235    1.85437972    0.14078914
H      1.49645777    2.79064857   -0.69584908
O      1.67207588   -0.86519563   -0.52753002
H     -5.88081904   -2.42641607    0.01296661
H      2.33937392   -0.18724800   -0.76838848
H     -3.61506456   -2.71890211    0.18997816