20

O      0.55315119    2.85056529    0.58952959
C      0.79274427    1.82366813   -0.02540465
C      1.56339633    0.65037352    0.50410156
C      0.95356072   -0.73060264    0.24183043
C     -0.55388883   -0.91234046    0.55073664
C     -1.47154536   -0.98045466   -0.67913435
O     -2.83531290   -1.11631537   -0.26377921
H     -1.22745492   -1.83767703   -1.31395856
H     -1.41369555   -0.06957112   -1.27795467
H      2.57556792    0.71324248    0.08818243
O      0.40525995    1.70252248   -1.30273098
H      1.64449069    0.79313299    1.58906669
H     -0.02844016    2.55678233   -1.51479531
O     -1.04698844    0.06831031    1.47524255
H     -0.66729843   -1.86950289    1.07582779
H     -1.33398346    0.85366060    0.97369301
O      1.27224668   -1.20130872   -1.06934091
H      1.48462108   -1.41428536    0.91827579
H      2.23757008   -1.15759191   -1.18573176
H     -2.90400089   -0.72260799    0.62634395
20

O     -0.90132158    0.38094972    0.86423008
C     -0.06363802    0.02689561    0.06102206
C      0.13672886   -3.05144767    1.99188073
C      0.65998240   -4.05032916    3.04743239
C      2.05141694   -3.94823128    2.35655229
C      1.59008891   -2.59288193    1.77697702
O      1.14748551    0.56957847   -0.06448387
H      1.86610478   -2.39608533    0.73755812
H      1.88183755   -1.73238807    2.38986072
H     -0.54470351   -2.27885455    2.35802578
O     -0.22415971   -0.95983109   -0.82083951
H     -0.31288970   -3.53444478    1.11681655
H     -1.12787946   -1.28961383   -0.65338105
O      2.35454698   -4.97096593    1.38278120
H      2.88437351   -3.85513196    3.06263098
H      3.20878119   -4.70302774    1.00271962
O      0.59575737   -3.59865946    4.41776022
H      0.20337883   -5.04329142    2.96629694
H     -0.34672173   -3.65622868    4.65161480
H      1.16951324    1.27202114    0.61345230
