20

O      0.55315119    2.85056529    0.58952959
C      0.79274427    1.82366813   -0.02540465
C      1.56339633    0.65037352    0.50410156
C      0.95356072   -0.73060264    0.24183043
C     -0.55388883   -0.91234046    0.55073664
C     -1.47154536   -0.98045466   -0.67913435
O     -2.83531290   -1.11631537   -0.26377921
H     -1.22745492   -1.83767703   -1.31395856
H     -1.41369555   -0.06957112   -1.27795467
H      2.57556792    0.71324248    0.08818243
O      0.40525995    1.70252248   -1.30273098
H      1.64449069    0.79313299    1.58906669
H     -0.02844016    2.55678233   -1.51479531
O     -1.04698844    0.06831031    1.47524255
H     -0.66729843   -1.86950289    1.07582779
H     -1.33398346    0.85366060    0.97369301
O      1.27224668   -1.20130872   -1.06934091
H      1.48462108   -1.41428536    0.91827579
H      2.23757008   -1.15759191   -1.18573176
H     -2.90400089   -0.72260799    0.62634395