20

O      2.87168325    1.61005551   -1.43438758
C      1.86611707    0.90068878   -1.50107858
C      0.95463584    0.61625378   -0.30776997
C     -0.16487407   -0.37838777   -0.70344854
C     -1.08570717   -0.90437698    0.42923720
C     -0.74530677   -0.53217093    1.87028325
O     -1.16370936    0.78519434    2.17958596
H      0.31426561   -0.66209762    2.10737687
H     -1.30588883   -1.19150146    2.54149219
H      1.58755934    0.43318153   -2.46023745
O      0.41212763    1.82963720    0.20859237
H      1.60164365    0.16941063    0.45405094
H     -0.25107756    2.12047151   -0.45183910
O     -0.97869888    0.28245202   -1.67519873
H     -1.08730287   -2.00222569    0.38364936
H     -1.67359217   -0.35468733   -1.91781218
O      0.39667809   -1.50421487   -1.37336895
H     -2.11992441   -0.59221478    0.23475578
H      0.95004510   -1.99348297   -0.74019744
H     -0.37867348    1.36801510    2.15631459