20

O     -1.68379042    0.42516908    1.83919453
C     -1.17944124   -0.69102095    1.74942423
C     -0.33978724   -1.21621268    0.59799487
C      0.22706846   -0.22650737   -0.39628171
C      0.76699700    1.11464116    0.04476289
C     -0.45880794    1.04682957   -0.82578645
O      7.31220497   -0.25911128   -0.22059204
H     -1.41380042    1.31244666   -0.39052079
H     -0.36630769    1.35024559   -1.86261254
H     -1.32408025   -1.41944510    2.56644624
O     -1.12123158   -2.19686643   -0.09087723
H      0.50594507   -1.74388164    1.05419824
H     -1.04398740   -1.98414100   -1.04071461
O      1.97990046    1.51923704   -0.61852801
H      0.63164725    1.41914909    1.07747506
H      2.07522267    2.48878219   -0.59217251
O      0.97344927   -0.86695994   -1.46143620
H      7.11241927    0.66787728   -0.41993818
H      1.77100398   -0.33146526   -1.65056599
H      6.89383560   -0.40876600    0.64053021
20

O     -3.42816196    0.72734646   -0.68332823
C     -2.54819431    0.30936699    0.05197741
C     -0.65765430   -1.00487499    0.63251081
C      0.62842793   -0.40096706    0.12319036
C      0.75191779    1.09810575   -0.05280350
C      0.75763254    0.19864368   -1.25519212
O      7.77165503    0.14218672   -0.07618027
H     -0.10889554    0.22834142   -1.90641505
H      1.69105590    0.08130854   -1.79233122
H     -2.31245964    0.76467452    1.02534098
O     -1.75640873   -0.74061257   -0.25255958
H     -0.86553099   -0.66836367    1.65541047
H     -0.54953540   -2.09455758    0.67333812
O      2.02585308    1.65608640    0.31094476
H     -0.11810631    1.72782098    0.08793212
H      2.59737509    0.95397006    0.67811799
O      1.82249508   -1.03816272    0.63111870
H      7.36005103   -0.66219620   -0.42619637
H      2.07018977   -1.79812623    0.07274799
H      7.09232971    0.52000947    0.50237663
