20

O     -1.11421074    1.94019411    1.98973459
C     -1.56739151    1.05014392    1.26887154
C     -0.76923899   -0.09097102    0.53105982
C      0.01070754    0.39546192   -0.74109096
C      1.18457484   -0.52046112   -0.29525053
C      0.61996727   -0.45282330    1.13599152
O      6.56410866    0.13799785   -0.15943524
H      0.65829907   -1.39788899    1.68602442
H      1.06984250    0.32886888    1.75897414
H     -2.65380943    1.02068682    1.07907608
O     -1.62214354   -1.24559983    0.26367927
H      6.95139051    0.35857330    0.70098340
H     -1.83222215   -1.16097400   -0.68932174
O      2.50794208    0.01257733   -0.48792141
H      1.11960059   -1.53222024   -0.71721928
H      2.76917702   -0.26124992   -1.38413638
O     -0.62376154    0.05628731   -1.99912109
H      0.25617967    1.46496766   -0.71877987
H     -0.01351265    0.39300046   -2.68057015
H      7.18882692   -0.49657115   -0.54154816
20

O     -1.24421775    1.07566889    1.34525882
C     -1.22018295    0.57401693    0.00136062
C     -0.87414267   -0.28709430    1.16652911
C      0.03280337    0.80138411   -0.77985908
C      0.96572736   -0.34866766   -0.32855747
C      0.58202314   -0.60149058    1.13684555
O      6.98211397    0.25755964   -0.18146835
H      0.79121718   -1.63916571    1.41703018
H      1.14755231    0.04436627    1.81859947
H     -2.13766633    0.45451744   -0.54687839
O     -1.78763646   -1.30014606    1.56233016
H      6.47496269    0.38851734    0.63376699
H     -2.70212661   -1.04753526    1.35011491
O      2.33678824    0.00739266   -0.45200356
H      0.78514595   -1.25273536   -0.92414078
H      2.57771524   -0.10164333   -1.38830912
O     -0.23261893    0.70856300   -2.17548056
H      0.46087971    1.78844895   -0.57056600
H      0.51873923    1.12412001   -2.63227387
H      6.76063525   -0.64607698   -0.45229864
