20

O     -2.68462067    0.21367499    0.93474149
C     -1.49214583    0.25398993    1.24388187
C     -0.47909755   -0.75271342    0.71661030
C      0.65508124    0.01847540    0.09995137
C      0.76325982    0.32058347   -1.19822635
C      8.11328207    0.26656968   -0.20072792
O      7.30760337   -0.87736873    0.01511740
H      9.13633674    0.05905423    0.12240935
H      8.11180146    0.50628449   -1.26663395
H     -1.11218851    0.99765268    1.96477286
O     -1.07883385   -1.61559323   -0.24750628
H     -0.13004835   -1.36611099    1.55324274
H     -2.04314914   -1.46846272   -0.17183195
O      1.83722195    1.02438555   -1.67847496
H      0.03018986    0.04757953   -1.94734663
H      1.71979015    1.11486279   -2.64297168
O      1.66351841    0.40323137    0.97200154
H      7.70655864    1.11106662    0.36098567
H      2.35102246    0.80844462    0.40115565
H      7.32824477   -1.06560629    0.96884944
20

O     -2.19604090    0.42188899   -0.03866614
C     -1.34326333    1.06387907   -0.64195011
C     -0.06513348   -1.27929078    0.90573212
C      0.66747502   -0.15941384    0.20762760
C      0.12783545    0.84080859   -0.51269208
C      7.54689290    0.26656966   -0.20072803
O      6.74121396   -0.87736843    0.01511791
H      8.56994769    0.05905388    0.12240856
H      7.54541165    0.50628440   -1.26663406
H     -1.61704555    1.87644752   -1.33594116
O     -0.99085285   -1.91550338    0.03717223
H     -0.58048476   -0.91773192    1.80186588
H     -1.77500001   -1.32644489    0.01591310
O      0.94777960    1.72382769   -1.20283306
H      0.64693632   -2.04728463    1.22591548
H      1.77023403    1.23319803   -1.39554575
O      2.05315153   -0.20925278    0.36152302
H      7.14017016    1.11106678    0.36098576
H      2.35440893    0.69487230    0.57187886
H      6.76185642   -1.06560630    0.96884987
