20

O     -2.68462067    0.21367499    0.93474149
C     -1.49214583    0.25398993    1.24388187
C     -0.47909755   -0.75271342    0.71661030
C      0.65508124    0.01847540    0.09995137
C      0.76325982    0.32058347   -1.19822635
C      8.11328207    0.26656968   -0.20072792
O      7.30760337   -0.87736873    0.01511740
H      9.13633674    0.05905423    0.12240935
H      8.11180146    0.50628449   -1.26663395
H     -1.11218851    0.99765268    1.96477286
O     -1.07883385   -1.61559323   -0.24750628
H     -0.13004835   -1.36611099    1.55324274
H     -2.04314914   -1.46846272   -0.17183195
O      1.83722195    1.02438555   -1.67847496
H      0.03018986    0.04757953   -1.94734663
H      1.71979015    1.11486279   -2.64297168
O      1.66351841    0.40323137    0.97200154
H      7.70655864    1.11106662    0.36098567
H      2.35102246    0.80844462    0.40115565
H      7.32824477   -1.06560629    0.96884944