20

O     -2.74641845   -0.58664636    1.35504641
C     -1.85998264   -0.11952966    0.63752710
C     -0.38705237   -0.16813477    1.01821233
C      0.43388187    0.49285481   -0.05530247
C      0.97267683   -0.12792223   -1.10996936
C      8.08953161    0.18630886    0.31146553
O      7.77253509    0.04006779   -1.06055096
H      9.03672089   -0.31586995    0.52305500
H      8.18392314    1.24984641    0.54298044
H     -2.10420151    0.29348283   -0.35609201
O      0.00987314   -1.52405625    1.19864959
H     -0.25370295    0.35811374    1.96970584
H     -0.57803559   -1.87333105    1.89510501
O      1.70831842    0.56243588   -2.03890702
H      0.86597326   -1.18635660   -1.31225079
H      2.01263731   -0.07704607   -2.70996289
O      0.65511214    1.85217890    0.11437886
H      7.29132032   -0.24715122    0.91899519
H      1.27092057    2.10395683   -0.60614057
H      7.69521738   -0.91320189   -1.23594520