20

O      2.63199653   -0.32475285    2.30822556
C      2.72009541    0.00550167    1.12988017
C      1.54936060    0.22614146    0.18429897
C      0.17744619    0.11201052    0.87354394
C     -0.99224209    0.64242733    0.00401774
C     -1.96413900   -0.44205897   -0.47724677
O     -2.90792703    0.16559383   -1.37089917
H     -2.51220226   -0.88523311    0.36027292
H     -1.44191000   -1.22315576   -1.03795622
H      3.71236136    0.17330842    0.67661402
O      1.65970531   -0.74309533   -0.86111436
H      1.69545332    1.23246892   -0.22656523
H      1.91121971   -0.25421913   -1.66660119
O     -0.53225646    1.37987379   -1.14330084
H     -1.56290764    1.36833398    0.59672843
H     -1.32762536    1.43732101   -1.71682189
O     -0.09873499   -1.24137520    1.27574927
H      0.19746033    0.70538262    1.79578436
H      0.61958676   -1.79665132    0.91507342
H     -3.53474067   -0.53782184   -1.61968314
20

O     -2.62666064    1.76913083    0.34104747
C     -2.62116360    0.54566391    0.48143954
C     -1.56244386   -0.38837943   -0.10103643
C     -0.22258056    0.28639693   -0.28897225
C      0.93855316   -0.28656761    0.06472371
C      2.27996365    0.36411006   -0.12302401
O      3.23943969   -0.44888589    0.56837105
H      2.30996386    1.37835645    0.28832025
H      2.55761569    0.38606477   -1.18070755
H     -3.45906753    0.03851460    0.98895172
O     -2.03210087   -0.84914763   -1.36358294
H     -1.48456650   -1.23915970    0.58581287
H     -2.37615173   -1.74783797   -1.22857798
O      0.97195155   -1.55594776    0.62450933
H      0.73217124    0.49185093    3.01825045
H      1.93350832   -1.75504593    0.70059053
O     -0.20238006    1.55447309   -0.86367643
H      0.10375629    0.81263764    2.79511252
H     -1.12197320    1.89995340   -0.86543285
H      3.47809266    0.04830787    1.37124395
