20

O     -2.44540491   -0.24270354   -2.20610429
C     -1.38938550   -0.49392620   -1.62674462
C     -1.29900388   -0.95694453   -0.18210677
C     -0.80354120    0.13247453    0.79085941
C      0.72537088    0.33538041    0.89189064
C      1.38190926    0.82406707   -0.40714545
O      2.62849714    1.44982385   -0.10728974
H      0.75695594    1.56275679   -0.91659160
H      1.59576054   -0.01080367   -1.08111247
H     -0.43176761   -0.38247487   -2.15696459
O     -0.47473001   -2.12109825   -0.12278575
H     -2.32008425   -1.24833433    0.09751720
H     -0.69979297   -2.57801986    0.71061148
O      1.35669521   -0.86118479    1.36668113
H      0.91125553    1.09262636    1.66347649
H      1.36642886   -1.50013986    0.62780863
O     -1.46435621    1.37258447    0.54192466
H     -1.12755180   -0.20102784    1.78669378
H     -1.23254222    1.98796303    1.26188039
H      2.96528718    1.83898121   -0.93249853