20

O     -0.00027291    3.21552618    0.01514410
C     -0.29657870    2.28073076   -0.72757205
C     -1.24212407    1.15909727   -0.35172634
C     -0.49086275   -0.09000412    0.20339774
C      0.92908441   -0.30422274   -0.36537654
C      1.76942312   -1.25024187    0.48840313
O      1.16671358   -2.53866989    0.50059353
H      1.86191281   -0.88099578    1.51632590
H      2.78095300   -1.33730011    0.07840425
H      0.17657913    2.18583051   -1.72102977
O     -2.00297897    0.88701522   -1.53435003
H     -1.93462295    1.54068140    0.40914616
H     -2.73985143    1.52488728   -1.54321296
O     -0.41748809    0.02792945    1.61954304
H      1.48694333    0.63479668   -0.41204670
H     -1.32873768   -0.15895638    1.91096458
O     -1.27660248   -1.26164033   -0.00741734
H      0.84994134   -0.71019564   -1.38185452
H     -0.64556767   -2.00753032   -0.07755701
H      1.35413696   -2.91673756    1.38022079