20

O     -2.10381404   -1.99945977    1.11606906
C     -0.90851865   -1.83277682    1.35943797
C      0.19025252   -1.69226625    0.30259358
C      0.47871157   -0.23394917    0.02960717
C     -0.46190960    0.69183231   -0.24282260
C     -0.27250846    2.13973189   -0.57125430
O      1.11227634    2.46239840   -0.66010177
H     -0.72630238    2.76374464    0.20454306
H     -0.74433126    2.36489508   -1.53275781
H     -0.55580814   -1.78469180    2.40343105
O     -0.12658110   -2.31869313   -0.93228257
H      1.07962618   -2.18824725    0.70815594
H     -0.31776104   -3.24992640   -0.73335352
O      7.73557521   -0.11879177   -0.30365612
H     -1.50376603    0.37134253   -0.26113747
H      6.95367782   -0.55816246    0.06315565
O      1.82469448    0.09348932    0.04514354
H      7.83377346    0.67695423    0.24050047
H      1.88426438    1.02736609   -0.26412960
H      1.15147523    3.38521036   -0.97114174