20

O     -1.63540683    1.87931180    1.55048704
C     -1.04518003    2.34581608    0.57643755
C     -0.49845608    1.54649441   -0.58795493
C     -0.46169956    0.01703707   -0.35875084
C      0.35884738   -0.39070765    0.88613414
C      1.27592163   -1.58674418    0.66702502
O      0.51299726   -2.73104811    0.30947045
H      1.82458632   -1.81741699    1.58558444
H      2.01715759   -1.37421331   -0.11280817
H     -0.92860552    3.43819316    0.47480510
O      0.82656613    2.02911832   -0.87433634
H     -1.11488285    1.78311547   -1.46254288
H      1.25218035    1.31196859   -1.38866874
O     -1.76431987   -0.53729951   -0.34979999
H     -0.32732432   -0.61768474    1.71257331
H     -1.72996674   -1.32603819    0.22416282
O      0.13399670   -0.51744300   -1.54494325
H      0.98819618    0.44130344    1.22167929
H     -0.65027064   -0.76027084   -2.07414882
H      0.96566289   -3.13349184   -0.45440519
20

O     -2.08294761   -0.97897902    0.46704713
C     -1.10463751   -1.06642237    1.20770633
C     -0.03140407   -0.00473902    1.35994208
C     -0.21622063    1.20457668    0.37270376
C      0.26167195   -1.08153026   -1.77229488
C      1.08951389    0.14383056   -1.43370033
O      0.28905435    1.20054233   -0.94481552
H      1.94825337   -0.07330182   -0.79362002
H      1.52058907    0.51248734   -2.37202595
H     -0.98930509   -1.94098118    1.86989920
O      1.26178708   -0.61705055    1.33391729
H     -0.16754296    0.38022438    2.38002134
H      1.33498788   -1.22444374    2.08867663
O     -1.57748242    1.59693917    0.27934651
H     -0.76297964   -0.80608416   -2.04197066
H     -2.05678237    0.78831482    0.00533936
O      0.38826219    2.32435799    1.00816753
H      0.21591404   -1.77094326   -0.92668866
H     -0.03096064    3.04931296    0.51345435
H      0.71022908   -1.63611083   -2.60110547
