20

O     -2.05392766   -0.19806919   -1.85015724
C     -1.64378619    0.42033796   -0.88504656
C     -0.41259407    1.26566302   -0.84139346
C      0.69826316    0.75550813    0.07052272
C      1.03532881   -0.75119666   -0.01395702
C      0.01874196   -1.71923395    0.61501735
O     -0.53456466   -1.23105482    1.83748587
H      0.50478563   -2.67261848    0.84744450
H     -0.80611895   -1.93770180   -0.06838352
H     -0.04163442    1.37372492   -1.86818988
O     -2.29867943    0.37379441    0.29047250
H     -0.70409578    2.28032734   -0.54056403
H     -3.09797409   -0.16643894    0.09088139
O      2.29536562   -0.94057842    0.66459917
H      1.22156881   -1.04179179   -1.05414286
H      2.83541397   -0.16604190    0.40545311
O      1.91145055    1.45994134   -0.29979888
H      0.50220230    1.03165469    1.11280993
H      1.76327127    2.40872730   -0.13596742
H     -1.19301680   -0.54495312    1.62291431
20

O     -1.87441195   -0.56521692   -1.18554762
C     -0.58811338   -0.93885549   -0.72144325
C     -0.61386178   -1.02783235    0.81389175
C      0.16228000    0.19832263    1.30155362
C      0.20258849    1.14578053    0.09943281
C      0.43233685    0.17347060   -1.05794830
O      1.78907102   -0.28998605   -1.02601882
H      0.25753619    0.64643746   -2.02911532
H     -1.81846203   -0.68068934   -2.15112112
H     -1.63882242   -1.02932490    1.20303909
O     -0.30657692   -2.16858203   -1.34730141
H     -0.12357299   -1.93757617    1.17834605
H     -0.66076199   -2.86756641   -0.77350034
O      1.27301516    2.08288410    0.22345136
H     -0.73950290    1.69957740    0.00750506
H      1.12558183    2.77397690   -0.44798451
O     -0.46229568    0.80686515    2.42383157
H      1.17448133   -0.09007913    1.61105679
H      0.07535841    1.59198387    2.63844283
H      2.33413280    0.47641016   -0.76057024
