20

O     -1.87441195   -0.56521692   -1.18554762
C     -0.58811338   -0.93885549   -0.72144325
C     -0.61386178   -1.02783235    0.81389175
C      0.16228000    0.19832263    1.30155362
C      0.20258849    1.14578053    0.09943281
C      0.43233685    0.17347060   -1.05794830
O      1.78907102   -0.28998605   -1.02601882
H      0.25753619    0.64643746   -2.02911532
H     -1.81846203   -0.68068934   -2.15112112
H     -1.63882242   -1.02932490    1.20303909
O     -0.30657692   -2.16858203   -1.34730141
H     -0.12357299   -1.93757617    1.17834605
H     -0.66076199   -2.86756641   -0.77350034
O      1.27301516    2.08288410    0.22345136
H     -0.73950290    1.69957740    0.00750506
H      1.12558183    2.77397690   -0.44798451
O     -0.46229568    0.80686515    2.42383157
H      1.17448133   -0.09007913    1.61105679
H      0.07535841    1.59198387    2.63844283
H      2.33413280    0.47641016   -0.76057024