20

O     -3.09531058    0.67713678    0.57700637
C     -2.26574722    0.00103412   -0.02784065
C     -0.92556908   -0.40824198    0.55652110
C      0.22415879    0.16392722   -0.23219660
C      1.63287730    0.05407752    0.30922789
C      0.94840340    1.38985880    0.25816527
O      7.37809530    0.14218672   -0.07618027
H      0.65801874    1.83126907    1.20503412
H      1.28876912    2.11512508   -0.47095048
H     -2.47122552   -0.36711094   -1.04831085
O     -0.83012662   -1.83145136    0.52577975
H     -0.88361140   -0.08223776    1.60238233
H     -1.40563111   -2.16257497    1.23930966
O      2.66619362   -0.14549065   -0.67315800
H      1.77209811   -0.41225698    1.27867729
H      2.35460912    0.14010446   -1.55276433
O      0.13781966   -0.00588460   -1.66590810
H      6.96649131   -0.66219620   -0.42619637
H      0.19427367   -0.95728382   -1.88097477
H      6.69876999    0.52000947    0.50237663
20

O     -3.27734000   -0.09978137    1.67029079
C     -2.11044716   -0.45317422    1.81171135
C     -0.93183766    0.09976286    1.01293768
C      0.65084679   -0.76255955   -0.68017475
C      1.16955245    0.61241000   -1.01133770
C      0.17639877   -0.05332723   -1.91961256
O      7.80368348    0.14218672   -0.07618027
H     -0.82930219    0.34586566   -1.94973280
H      0.53018858   -0.41382460   -2.87854795
H     -1.84436998   -1.21903040    2.56080750
O      0.01320733    0.73740063    1.85152896
H     -1.33253948    0.82492312    0.29757151
H      0.29090545    0.07375919    2.50318490
O      2.51404936    0.65701130   -1.51755812
H      0.82901448    1.47618057   -0.45430764
H      3.15458513    0.76685221   -0.79315388
O     -0.34316391   -1.00528658    0.34495871
H      7.39207949   -0.66219620   -0.42619637
H      1.34025205   -1.58718160   -0.84856599
H      7.12435817    0.52000947    0.50237663
