20

O     -2.66731282   -0.70721058    1.01862294
C     -1.73560196   -0.00340606    1.40560410
C     -0.28206433   -0.43396764    1.28738597
C      0.41515058    0.34992398    0.20465211
C      0.23836863   -0.00781825   -1.25482255
C      1.55967703   -0.24248084   -0.57937678
O      6.73762556   -0.14541384    0.05166929
H      1.84855859   -1.26783931   -0.37707114
H      2.39259483    0.40227812   -0.83099361
H     -1.90839890    0.99143733    1.85075121
O     -0.21574913   -1.84016159    1.03132356
H      0.20285420   -0.25478014    2.25248751
H     -1.07493719   -2.07789494    0.62811917
O      0.19838184    1.11887102   -2.15149401
H     -0.37073522   -0.87273159   -1.49757074
H      0.36411209    0.83164233   -3.06789635
O      0.51710499    1.76771177    0.46748548
H      7.03654390    0.49925086   -0.60712981
H      0.51799678    2.24642641   -0.38720688
H      7.53869683   -0.35383702    0.55546052
20

O     -2.12451762    1.34692971    0.31596507
C     -1.83257906    0.54534691    1.19338975
C     -1.15129776   -0.73725222    0.92659331
C     -0.11134148   -0.89970547   -0.15659317
C      1.09494296    1.28322197   -0.44386329
C      0.30272256    0.17094843   -1.12376547
O      7.18388186    0.14218672   -0.07618027
H     -0.57548720    0.59816935   -1.61984848
H      0.91806351   -0.28780786   -1.90780387
H     -2.04103497    0.76105752    2.25497464
O     -1.45419980   -1.36286710   -0.33311936
H     -1.07068450   -1.39162254    1.78613222
H      0.61586261    1.63633320    0.47325568
O      2.41340851    0.85470225   -0.11692481
H      1.18956031    2.13657928   -1.12257396
H      2.34506075   -0.01204136    0.32375082
O      0.85977645   -1.93549170    0.04927037
H      6.77227786   -0.66219620   -0.42619637
H      0.62174476   -2.70650036   -0.49883945
H      6.50455654    0.52000947    0.50237663
