20

O     -1.57648152   -2.21947411   -1.09671803
C     -1.49406304   -1.02444481   -0.80175615
C     -0.20342293   -0.34866926   -0.27167941
C     -0.56893979    0.96944046    0.40083795
C      0.23850910    2.03703088    0.44145860
C      1.36964795   -2.09282383    0.20462259
O      0.47782929   -1.11631439    0.71317259
H      1.64795358   -2.76218610    1.02310978
H      0.91818032   -2.68992159   -0.59189783
H     -2.33151557   -0.34509788   -1.03527643
O      0.63226834   -0.05193395   -1.39429252
H      0.46571579    0.48745522    3.12623303
H      0.54306852   -0.81524798   -1.99137460
O     -0.13913297    3.19633464    1.07002374
H      1.23245881    2.05810253    0.01198097
H      0.62793126    3.79927749    1.05572607
O     -1.81919205    1.06080648    1.00872396
H      2.28159423   -1.60927159   -0.15970930
H     -1.83669350    1.95439301    1.41304804
H      0.76578038   -0.11878566    3.42628842