20

O     -3.19067852    1.03432358   -0.08255655
C     -2.26181554    1.60102624    0.49317563
C     -1.02747612    0.86057943    0.97055761
C     -0.29750914    0.31008430   -0.26952081
C      1.13922805   -0.14607392    0.04511186
C      1.89091240   -0.58072354   -1.21844920
O      3.23068031   -0.93181260   -0.86802812
H      1.93153327    0.22430920   -1.95775210
H      1.43395143   -1.46416117   -1.67551914
H     -2.26185185    2.69255660    0.64857937
O     -1.43472451   -0.18338607    1.84838640
H     -0.40444618    1.56774154    1.52689373
H     -1.90984579   -0.83686608    1.29908797
O      1.14865828   -1.26618232    0.94291756
H      1.69795955    0.65787483    0.53737646
H      0.37785975   -1.81401561    0.69316726
O     -1.02841888   -0.82279621   -0.78308682
H     -0.26242468    1.07378818   -1.05658632
H     -1.92090857   -0.50247807   -1.03673267
H      3.14931676   -1.47378831   -0.05702210
20

O     -3.49017494   -0.24522610   -1.07927779
C     -2.76145841    0.25070715   -0.22028574
C     -1.37749503   -0.30236890    0.08877490
C     -0.37790438    0.85107998    0.28724030
C      0.97520255    0.40892228    0.85792748
C      1.92504505   -0.30338801   -0.09953442
O      3.16710440   -0.44853933    0.56062720
H      1.49226787    1.30708752    1.22238675
H      2.09281810    0.25910624   -1.02284910
H     -3.11672495    1.07024640    0.42662989
O     -0.95745715   -1.19620697   -0.94345124
H     -1.47033239   -0.87691179    1.01732292
H     -1.76589022   -1.39543639   -1.46547292
O      1.52230687   -1.61767054   -0.39314612
H      0.80539371   -0.21838588    1.74260483
H      0.66324035   -1.54050426   -0.86533837
O     -0.19703849    1.56442422   -0.93707253
H     -0.81728174    1.56296211    0.99734501
H      0.43641468    2.28852512   -0.78536677
H      3.25196414   -1.41842287    0.61093573
