20

O      0.72032030    1.76356506   -2.01858325
C     -0.08216332    1.50705888   -1.13925932
C      0.11780328    1.67200094    0.33650195
C      0.62367186    0.41503628    1.04383641
C     -0.16002497   -0.89518332    0.80374762
C      0.25106599   -1.69697785   -0.44121538
O     -0.53648322   -2.89019824   -0.52133475
H      1.30490127   -1.98695802   -0.40924846
H      0.07039107   -1.14718417   -1.36605330
H      0.82538846    2.49917283    0.47241361
O     -1.30219153    1.01283147   -1.44188772
H     -0.83113130    2.00652051    0.77280490
H     -1.30441974    0.99087158   -2.42609731
O     -1.57812630   -0.67122981    0.78432174
H      0.02084562   -1.55126323    1.66491695
H     -1.79380426   -0.18700122   -0.03930131
O      2.01379350    0.21694958    0.79189673
H      0.53995596    0.62901796    2.11809267
H      2.50064735    0.98853738    1.13327319
H     -1.40044003   -2.67556659   -0.11882497
20

O      0.39054546    1.05173415   -2.07355994
C      0.14848111    1.04446936   -0.87507546
C      0.99584921    1.70255960    0.17355669
C      2.18907413    0.80556012    0.44877651
C     -1.02089125   -0.95625734   -0.86400825
C     -2.37006378   -1.51458668   -0.39477351
O     -2.40641374   -1.51207329    1.04063942
H     -2.49027593   -2.55298096   -0.71744790
H     -3.20789442   -0.91372594   -0.75823953
H      1.30008557    2.69520667   -0.17244095
O     -0.84127255    0.33138763   -0.27774875
H      0.41471202    1.86664923    1.08894926
H      1.88665383   -0.11827396    0.95533601
O      0.01898123   -1.79713538   -0.36565680
H     -0.98355641   -0.93495092   -1.95905905
H     -0.31242325   -2.13669777    0.48786938
O      3.13521329    1.48288498    1.26639312
H      2.69104944    0.51771909   -0.48115539
H      2.77873212    1.51539487    2.17004485
H     -2.31658609   -0.57688345    1.30760028
