20

O      0.72032030    1.76356506   -2.01858325
C     -0.08216332    1.50705888   -1.13925932
C      0.11780328    1.67200094    0.33650195
C      0.62367186    0.41503628    1.04383641
C     -0.16002497   -0.89518332    0.80374762
C      0.25106599   -1.69697785   -0.44121538
O     -0.53648322   -2.89019824   -0.52133475
H      1.30490127   -1.98695802   -0.40924846
H      0.07039107   -1.14718417   -1.36605330
H      0.82538846    2.49917283    0.47241361
O     -1.30219153    1.01283147   -1.44188772
H     -0.83113130    2.00652051    0.77280490
H     -1.30441974    0.99087158   -2.42609731
O     -1.57812630   -0.67122981    0.78432174
H      0.02084562   -1.55126323    1.66491695
H     -1.79380426   -0.18700122   -0.03930131
O      2.01379350    0.21694958    0.79189673
H      0.53995596    0.62901796    2.11809267
H      2.50064735    0.98853738    1.13327319
H     -1.40044003   -2.67556659   -0.11882497