20

O     -1.64616971   -2.62116679   -1.19026357
C     -0.96397672   -2.42290007   -0.18480484
C      0.37932763   -1.70195692   -0.21982941
C      0.18325743   -0.29196048    0.29369522
C      0.51669668    0.82409841   -0.38309775
C      0.34823781    2.25061375    0.03410096
O     -0.32024580    2.33343299    1.28915403
H     -0.24622761    2.78517048   -0.71321113
H      1.32622800    2.73237481    0.12607517
H     -1.29733698   -2.76330209    0.81092172
O      0.88492367   -1.70263958   -1.55443589
H      1.08760662   -2.24898981    0.40969215
H      0.09192191   -1.69146193   -2.12748831
O      7.58000818   -0.07059627    0.38692451
H      0.97707984    0.71106200   -1.36369776
H      6.95126073    0.28574584   -0.25856596
O     -0.37857915   -0.21833343    1.55903777
H      8.38781305   -0.21514958   -0.12835855
H     -0.47834900    0.74201846    1.76326846
H     -0.46439460    3.28394019    1.45088316