20

O     -3.01091083    0.42061207    0.29240471
C     -1.84937861    0.38790256    0.70078119
C     -0.83023723   -0.65984092    0.26336233
C      0.37810553    0.04682648   -0.28873766
C      1.59177702    0.00117623    0.27162779
C      8.04794931    0.26656970   -0.20072791
O      7.24227049   -0.87736863    0.01511742
H      9.07100393    0.05905419    0.12240944
H      8.04646878    0.50628445   -1.26663395
H     -1.49534955    1.11085984    1.45492860
O     -1.35460301   -1.55675968   -0.70378451
H     -0.57092331   -1.24912464    1.14908226
H     -2.04243215   -1.05066793   -1.17962855
O      2.64825616    0.69173095   -0.26464212
H      1.83532341   -0.56043287    1.16437984
H      3.44070011    0.49857616    0.27076245
O      0.18541376    0.79545358   -1.44033939
H      7.64122593    1.11106672    0.36098559
H      1.07425869    1.12368815   -1.69019696
H      7.26291225   -1.06560643    0.96884941
20

O     -2.74991937    0.26149090    0.46828803
C     -1.61816921    0.71825218    0.29661607
C     -0.51910825   -0.01760810   -0.48955824
C      0.67476044   -0.23590947    0.42998281
C      1.84097950    0.42293781    0.33963686
C      7.56906916    0.26656966   -0.20072803
O      6.76339022   -0.87736843    0.01511791
H      8.59212395    0.05905388    0.12240856
H      7.56758791    0.50628440   -1.26663406
H     -1.33955704    1.71408084    0.68155711
O     -0.96848272   -1.25822905   -0.99586637
H      2.66744667    0.23496548    1.01575840
H     -1.91722374   -1.29265281   -0.76305062
O     -0.16865229    0.75834037   -1.61550732
H      1.99867047    1.18663574   -0.41754378
H      0.24557427    0.09559815   -2.19604869
O      0.49920296   -1.20306275    1.40979768
H      7.16234642    1.11106678    0.36098576
H      1.35447831   -1.38483928    1.83593805
H      6.78403268   -1.06560630    0.96884987
