20

O     -3.01091083    0.42061207    0.29240471
C     -1.84937861    0.38790256    0.70078119
C     -0.83023723   -0.65984092    0.26336233
C      0.37810553    0.04682648   -0.28873766
C      1.59177702    0.00117623    0.27162779
C      8.04794931    0.26656970   -0.20072791
O      7.24227049   -0.87736863    0.01511742
H      9.07100393    0.05905419    0.12240944
H      8.04646878    0.50628445   -1.26663395
H     -1.49534955    1.11085984    1.45492860
O     -1.35460301   -1.55675968   -0.70378451
H     -0.57092331   -1.24912464    1.14908226
H     -2.04243215   -1.05066793   -1.17962855
O      2.64825616    0.69173095   -0.26464212
H      1.83532341   -0.56043287    1.16437984
H      3.44070011    0.49857616    0.27076245
O      0.18541376    0.79545358   -1.44033939
H      7.64122593    1.11106672    0.36098559
H      1.07425869    1.12368815   -1.69019696
H      7.26291225   -1.06560643    0.96884941