9
51.06458779395325
C        0.571709       0.268676       0.821631
C       -0.357608       0.565057      -1.258096
H        1.608962      -0.045702       0.580560
H       -0.171177       1.255871      -2.072952
H        0.425449      -0.181808      -1.114542
O       -0.227644      -0.550880       1.206406
H       -1.076323       0.810984      -0.499372
H        0.487477       1.333536       1.101398
H       -1.040745      -0.323851      -1.472122
9
51.05121315931319
C        0.539973       0.206341       0.847725
C       -0.300637       0.549023      -1.276815
H        1.592839      -0.122621       0.630756
H       -0.064682       1.225946      -2.066296
H        0.431218      -0.217459      -1.108443
O       -0.309314      -0.606865       1.193117
H       -1.008450       0.787351      -0.565114
H        0.467738       1.284839       1.145029
H       -1.010718      -0.263069      -1.544640
