9
104.47480878765055
C        0.448449       0.209401       0.853333
C        0.111634       0.526944      -0.566171
H        1.324433      -0.457330       0.934241
H       -0.166214       1.568797      -0.717599
H        0.760946       0.032409      -1.293910
O       -1.133103      -0.720125      -0.229094
H       -1.317227       0.165864      -0.935389
H        0.622113       1.106343       1.482020
H       -0.465819      -0.415220       1.469250
9
97.85053756220441
C        0.398006       0.272421       0.859080
C        0.091957       0.624560      -0.631593
H        1.206952      -0.463658       0.982670
H       -0.108817       1.680863      -0.772469
H        0.749851       0.080984      -1.292183
O       -1.209771      -0.527770      -0.328289
H       -1.279704       0.344486      -1.002409
H        0.596552       1.159469       1.473538
H       -0.531504      -0.275573       1.409956
