9
13.545837815720006
C        0.799163       0.354569       1.243583
C       -0.161326       0.609698      -1.564090
H        1.774578       0.007607       0.843276
H       -0.692170       1.187738      -2.328828
H        0.811296       0.293076      -1.957262
O       -0.180268      -0.361717       1.254484
H       -0.053773       1.257660      -0.696913
H        0.772892       1.389705       1.650908
H       -0.701526      -0.269581      -1.264981
9
13.365462890666095
C        0.828389       0.359730       1.236080
C       -0.199942       0.613525      -1.544119
H        1.805469       0.034282       0.828317
H       -0.751848       1.169635      -2.315045
H        0.766186       0.315332      -1.942414
O       -0.125073      -0.372827       1.277778
H       -0.077821       1.257953      -0.675789
H        0.795387       1.391037       1.665046
H       -0.739406      -0.299047      -1.230445
