9
41.35435265894921
C        0.380253       0.298256       0.507805
C       -0.112272       0.663346      -1.009843
H        1.403688      -0.108307       0.479949
H        0.275050       1.559839      -1.481934
H        0.278357      -0.212774      -1.546124
O       -0.503528      -0.696250       0.982720
H       -1.150889       0.842564      -0.795112
H        0.269744       1.189412       1.143040
H       -1.144689      -1.223499       0.004446
9
30.672370042608236
C        0.374301       0.269811       0.469187
C       -0.093185       0.654276      -1.012674
H        1.393201      -0.127701       0.421806
H        0.321273       1.559900      -1.468930
H        0.263423      -0.216651      -1.602560
O       -0.535439      -0.738591       0.926664
H       -1.158359       0.850681      -0.812201
H        0.275482       1.154159       1.109840
H       -1.116068      -1.242393      -0.018885
