9
1.4834951632801676
C       -0.760194      -0.306532      -0.085644
C        0.545795       0.477033      -0.108236
H       -1.617966       0.342798      -0.303966
H       -0.920666      -0.767041       0.896016
H       -0.732700      -1.110129      -0.828694
O        1.671287      -0.384276       0.115935
H        0.537265       1.252620       0.669793
H        0.688356       0.971675      -1.078521
H        1.943563      -0.221226       1.027766
9
1.1997885845048586
C       -0.773739      -0.314915      -0.064177
C        0.538230       0.461481      -0.112252
H       -1.628428       0.340634      -0.274185
H       -0.919508      -0.762962       0.925625
H       -0.763507      -1.121733      -0.800961
O        1.657953      -0.403575       0.091526
H        0.528216       1.249448       0.650836
H        0.665501       0.945185      -1.087916
H        1.953914      -0.287012       1.005137
