9
0.7055506796896225
C       -0.794922      -0.403990       0.056049
C        0.455718       0.476147      -0.010022
H       -1.693019       0.211972      -0.095314
H       -0.898399      -0.873625       1.042418
H       -0.783756      -1.176361      -0.713386
O        1.649453      -0.277544       0.249555
H        0.379731       1.328476       0.667633
H        0.617240       0.813619      -1.037209
H        1.553455      -0.680178       1.128137
9
0.5381718580028974
C       -0.782494      -0.416329       0.082691
C        0.467570       0.463138       0.007781
H       -1.682287       0.192995      -0.079537
H       -0.885784      -0.875321       1.074300
H       -0.764236      -1.200753      -0.675636
O        1.661523      -0.284393       0.271904
H        0.388254       1.322111       0.679159
H        0.621135       0.800814      -1.020745
H        1.567810      -0.679807       1.153786
9
0.04426657901785802
C       -0.741395      -0.442456       0.218881
C        0.524598       0.399838       0.086489
H       -1.635659       0.160653       0.019207
H       -0.839453      -0.850576       1.233781
H       -0.723527      -1.278609      -0.487667
O        1.711267      -0.345680       0.343598
H        0.466318       1.286561       0.738425
H        0.636709       0.750054      -0.944277
H        1.638520      -0.707707       1.240458
9
0.01500470595783554
C       -0.737397      -0.446080       0.238462
C        0.529514       0.393280       0.095459
H       -1.632035       0.155491       0.035723
H       -0.831898      -0.846171       1.256901
H       -0.720441      -1.289474      -0.459411
O        1.717091      -0.352025       0.345378
H        0.475338       1.281123       0.746856
H        0.631478       0.748923      -0.934660
H        1.651685      -0.709064       1.244678
