9
2.428124182028114
C       -0.806943      -0.362636      -0.099316
C        0.495537       0.425167      -0.142123
H       -1.678264       0.281688      -0.280074
H       -0.934241      -0.832572       0.882744
H       -0.789876      -1.167598      -0.841861
O        1.629131      -0.431695       0.104654
H        0.515943       1.179661       0.656128
H        0.642967       0.921645      -1.109355
H        1.802998      -0.276331       1.039384
9
1.6125533945596544
C       -0.843725      -0.403454      -0.057154
C        0.468352       0.368792      -0.108967
H       -1.702191       0.258540      -0.242132
H       -0.976893      -0.863340       0.927535
H       -0.849453      -1.202278      -0.802511
O        1.585459      -0.497470       0.126757
H        0.484291       1.138781       0.671540
H        0.609791       0.858442      -1.078606
H        1.786980      -0.392132       1.067454
9
1.0351405993278604
C       -0.841730      -0.387302      -0.024841
C        0.484293       0.367266      -0.084213
H       -1.686567       0.285759      -0.212844
H       -0.978483      -0.839705       0.963661
H       -0.855882      -1.188492      -0.768761
O        1.593776      -0.510081       0.120488
H        0.497479       1.159473       0.677359
H        0.618695       0.841188      -1.061938
H        1.820196      -0.457668       1.059540
