9
21.98535718875064
C        1.746068       0.752310       1.820162
C        0.203760       0.777214      -1.133996
H        2.583011       0.190224       2.243558
H       -0.430414       1.652893      -1.356355
H        0.812069       0.286137      -1.922595
O       -0.050552       0.190534      -0.097054
H        2.083714       1.443930       1.035429
H        1.248057       1.330999       2.605111
H        1.153080      -0.023424       1.240742
9
21.36793855112046
C        1.720078       0.734120       1.793047
C        0.173442       0.739220      -1.150338
H        2.552315       0.163061       2.213449
H       -0.451421       1.618294      -1.373951
H        0.780066       0.233940      -1.948689
O       -0.076167       0.175991      -0.124023
H        2.058208       1.414767       0.993256
H        1.229304       1.316513       2.565461
H        1.130540      -0.031854       1.248263
