9
28.515677258415963
C        0.766474       0.482587       1.199016
C        0.071401       0.639336      -1.516157
H        1.806846       0.115985       1.076061
H       -0.762117       1.314799      -1.757917
H        0.511858       0.284339      -2.450393
O       -0.186326      -0.265144       1.059421
H        0.711187       1.175148      -0.679477
H        0.609420       1.452796       1.712097
H       -0.272415      -0.302050      -0.945860
9
27.06410352716921
C        0.823241       0.489697       1.213483
C        0.059219       0.645109      -1.446564
H        1.840204       0.134800       1.053282
H       -0.784266       1.320796      -1.656229
H        0.457318       0.306934      -2.419317
O       -0.097693      -0.260706       1.123675
H        0.709341       1.210154      -0.665695
H        0.665713       1.448099       1.745247
H       -0.262479      -0.262421      -0.927715
