20

O      1.34319861    2.04713740    0.11834121
C      0.11917752    2.03063995    0.18519808
C     -0.78860107    0.99089747   -0.44153908
C     -0.08514296   -0.30837761   -0.90732325
C      0.85513739   -0.99626742    0.09143590
C      0.35963869   -1.00813819    1.53166219
O      1.21970845   -1.82894499    2.31232086
H     -0.65843912   -1.40091183    1.60700479
H      0.38524402   -0.00319255    1.96241705
H     -0.41263293    2.82824963    0.73164344
O     -1.42470405    1.62070165   -1.57102933
H     -1.57051975    0.74099936    0.28602949
H     -2.20375838    2.10303724   -1.24349487
O     -1.11460812   -1.24364543   -1.23571635
H      1.85373225   -0.54370278    0.05639650
H     -0.66534703   -1.86289083   -1.84019537
O      0.60416358   -0.10486623   -2.13412480
H      1.01951139   -2.03693005   -0.22372748
H      0.19237582    0.68800462   -2.53062942
H      0.97186573   -1.71179941    3.24533045