20

O     -1.17864414    2.18759590    1.51891268
C     -1.54927780    1.03454090    1.29452719
C     -0.74406581   -0.09933626    0.55626005
C     -0.03159150    0.35917500   -0.76559177
C      1.19416130   -0.48920915   -0.32342055
C      0.67834716   -0.38078619    1.12329330
O      7.11655034    0.10176986   -0.35510899
H      0.77338637   -1.29893581    1.71091740
H      1.11394171    0.44523190    1.69740381
H     -2.55386594    0.72190924    1.62709827
O     -1.55799489   -1.29807614    0.37835405
H      6.23369764    0.28619522   -0.00082182
H     -1.83694198   -1.24588943   -0.55959894
O      2.48953058    0.08282701   -0.58280382
H      1.15520348   -1.52022963   -0.69955174
H      2.71395167   -0.18819798   -1.48975548
O     -0.69211130   -0.06229242   -1.98488652
H      0.17369751    1.43672872   -0.80109751
H     -0.14772642    0.31494432   -2.70006042
H      7.55648569   -0.38796507    0.35593080
20

O     -0.58945370    2.40409220   -0.10841388
C     -1.39218128    1.54972201    0.24696087
C     -1.04638213    0.11451749    0.41911681
C      0.19625440   -0.54076697   -0.16914417
C      1.23254246    0.19623401   -0.98319374
C      0.08610126   -0.29572446    1.31901502
O      7.44244606    0.25755964   -0.18146835
H     -0.03540623   -1.15695890    1.96372376
H      0.68519550    0.49148880    1.76477370
H     -2.44059632    1.81438112    0.46397402
O     -2.20845947   -0.75328135    0.49013893
H      6.93529479    0.38851734    0.63376699
H     -1.91551407   -1.68491427    0.50078522
O      2.20923441    0.80199051   -0.14387314
H      1.75200082   -0.51335380   -1.63831863
H      3.08044118    0.48475422   -0.43096832
O     -0.01138925   -1.91767361   -0.58246192
H      0.78347408    0.95471011   -1.62993459
H     -0.38586166   -1.94921713   -1.48217994
H      7.22096735   -0.64607698   -0.45229864
