20

O     -0.29822033   -1.32198348    2.51948948
C     -0.22242481   -2.06764833    1.54330229
C      0.15699767   -1.67331420    0.11260942
C      0.42540058   -0.19615252   -0.03815627
C     -0.53623198    0.73650908   -0.16589306
C     -0.32238943    2.20807440   -0.25703547
O      0.58190335    2.47993564   -1.31869552
H      0.10664862    2.59593442    0.67194409
H     -1.27214574    2.71911792   -0.44409098
H     -0.42034916   -3.14546930    1.67138831
O     -0.88505188   -2.07243621   -0.77838298
H      1.05749202   -2.23789669   -0.15618389
H     -0.73491981   -3.00685717   -0.99583749
O     -2.08738139    1.12511680   -3.07304776
H     -1.57450789    0.41183052   -0.15363194
H     -1.78672599    1.70795826   -3.78639420
O      1.76731114    0.14719099   -0.09610291
H     -2.77696692    1.63865413   -2.62615604
H      1.80995051    1.05102689   -0.47401874
H      0.36053717    3.37213805   -1.64070438
20

O     -1.96170557    1.18214981    0.10232649
C     -1.59510225    0.28016533    0.85259654
C     -0.29835868   -0.51963457    0.72198933
C      0.76836353    0.22463215   -0.05620617
C      0.88052080    0.25466326   -1.39283370
C      4.55485054   -0.70373861   -0.91828198
O      5.49672461   -1.61674968   -1.42784271
H      4.85753806   -0.34436180    0.07030984
H      4.49325059    0.14896481   -1.59928487
H     -2.25669468   -0.06187405    1.66723834
O     -0.58092693   -1.79379644    0.15263676
H      0.06557550   -0.70076181    1.73990289
H     -0.89387663   -1.63698438   -0.75388103
O      3.29222876   -1.32240077   -0.85987273
H      0.16497619   -0.24179123   -2.03923727
H      3.26607000   -1.83596628   -0.03850673
O      1.69656931    0.87986667    0.73688509
H      1.67608790    0.79696004   -1.89220335
H      2.33457152    1.33640522    0.16078608
H      5.78266144   -2.17201633   -0.68690082
