20

O     -1.96170557    1.18214981    0.10232649
C     -1.59510225    0.28016533    0.85259654
C     -0.29835868   -0.51963457    0.72198933
C      0.76836353    0.22463215   -0.05620617
C      0.88052080    0.25466326   -1.39283370
C      4.55485054   -0.70373861   -0.91828198
O      5.49672461   -1.61674968   -1.42784271
H      4.85753806   -0.34436180    0.07030984
H      4.49325059    0.14896481   -1.59928487
H     -2.25669468   -0.06187405    1.66723834
O     -0.58092693   -1.79379644    0.15263676
H      0.06557550   -0.70076181    1.73990289
H     -0.89387663   -1.63698438   -0.75388103
O      3.29222876   -1.32240077   -0.85987273
H      0.16497619   -0.24179123   -2.03923727
H      3.26607000   -1.83596628   -0.03850673
O      1.69656931    0.87986667    0.73688509
H      1.67608790    0.79696004   -1.89220335
H      2.33457152    1.33640522    0.16078608
H      5.78266144   -2.17201633   -0.68690082