20

O     -2.33651892    1.13683763   -1.18478949
C     -1.80728791    1.94495495   -0.42683492
C     -0.48626202    1.70087834    0.28180785
C      0.42942374    0.61770045   -0.35073218
C      0.52094125   -0.69542443    0.44524953
C      1.63700763   -1.61137947   -0.07690973
O      1.70833950   -2.78802845    0.72961083
H      2.60919670   -1.11077169   -0.02767201
H      1.45361309   -1.93213695   -1.10641919
H     -2.29058063    2.91105930   -0.19349939
O     -0.77560708    1.46666267    1.65742706
H      0.05225633    2.65477017    0.22792720
H     -1.28140390    0.62829743    1.70630180
O     -0.73172169   -1.39628877    0.37940156
H      0.71606322   -0.50013324    1.50532808
H     -0.87841915   -1.61506521   -0.56198512
O      0.10703881    0.32283920   -1.71851491
H      1.44005290    1.04356716   -0.37625271
H     -0.87254963    0.28578437   -1.80289577
H      0.78641774   -3.06412343    0.89345151
20

O     -2.38487368   -0.86934315   -1.04530891
C     -2.20474600   -0.54745726    0.12349059
C     -0.93271117    0.01346157    0.63397257
C     -0.41964066    1.34013891    0.12914105
C      0.34567851    0.07459962   -0.16931886
C      1.66368281   -0.18285337    0.49737350
O      2.07339065   -1.51197641    0.18446141
H      1.60492307   -0.08657027    1.58609301
H      2.41669797    0.51550726    0.11854274
H     -3.00753348   -0.65945863    0.87099074
O     -0.95914536   -3.16286310    1.43090859
H     -0.82614475   -0.14058639    1.70391649
H     -1.02938709   -4.04743317    1.04159780
O      0.31205240   -0.33092911   -1.55435831
H     -0.07818729   -2.85934870    1.16491444
H      0.56435217   -1.27278282   -1.61509050
O     -1.10886530    1.92100547   -0.99368335
H     -0.00926594    2.02732770    0.86081495
H     -1.10549583    1.28139767   -1.73898444
H      3.01849923   -1.57148080    0.40794729
