20

O     -2.33651892    1.13683763   -1.18478949
C     -1.80728791    1.94495495   -0.42683492
C     -0.48626202    1.70087834    0.28180785
C      0.42942374    0.61770045   -0.35073218
C      0.52094125   -0.69542443    0.44524953
C      1.63700763   -1.61137947   -0.07690973
O      1.70833950   -2.78802845    0.72961083
H      2.60919670   -1.11077169   -0.02767201
H      1.45361309   -1.93213695   -1.10641919
H     -2.29058063    2.91105930   -0.19349939
O     -0.77560708    1.46666267    1.65742706
H      0.05225633    2.65477017    0.22792720
H     -1.28140390    0.62829743    1.70630180
O     -0.73172169   -1.39628877    0.37940156
H      0.71606322   -0.50013324    1.50532808
H     -0.87841915   -1.61506521   -0.56198512
O      0.10703881    0.32283920   -1.71851491
H      1.44005290    1.04356716   -0.37625271
H     -0.87254963    0.28578437   -1.80289577
H      0.78641774   -3.06412343    0.89345151