20

O     -0.53165647   -2.72928092    1.81350186
C     -0.98309477   -1.89395960    1.02835660
C     -0.56257108   -0.43136408    1.05643813
C     -0.25199874    0.11759393   -0.31850617
C      1.06410191    0.79172241   -0.65655228
C     -0.17647323    1.61594093   -0.49288088
O      6.85130501    0.00379396   -0.36609324
H     -0.24971039    2.24073039    0.38992921
H     -0.63672243    2.04523935   -1.37477691
H     -1.79542673   -2.15208381    0.32789047
O      0.55062258   -0.25797649    1.93712394
H     -1.40546125    0.12309150    1.48311964
H      0.52982358   -1.02631281    2.54422676
O      1.50200708    0.60986568   -2.01872872
H      1.82308987    0.86039375    0.11596577
H      2.25780959    1.19328397   -2.21333344
O     -0.86868536   -0.57981808   -1.42525298
H      7.78545112   -0.05511037   -0.11536962
H     -0.26565415   -0.52706610   -2.19652101
H      6.38402431    0.05131641    0.48146287