20

O      0.14979948    1.80787627   -2.09610297
C      0.93984740    1.03645309   -1.56255910
C      1.12294912    0.87350187   -0.05754367
C      0.79129685   -0.58862833    0.35375838
C     -0.63410800   -1.14328907    0.10395006
C     -1.77778458   -0.17692276   -0.17990384
O     -1.91101306    0.77800831    0.85926032
H     -2.71569695   -0.73870398   -0.25336709
H     -1.64059164    0.34699034   -1.12710220
H      1.59990391    0.40025948   -2.18011361
O      0.48837461    1.84234022    0.76321536
H      2.19614512    1.03972045    0.10160155
H     -0.45216073    1.58160698    0.87076400
O      1.71039080   -1.45384622   -0.31554300
H     -0.92530692   -1.73119601    0.98610396
H      1.53051608   -2.33654943    0.05620351
O      1.10196176   -0.78790680    1.73312795
H     -0.60581717   -1.85578907   -0.73043277
H      1.78682974   -0.13855419    1.97121733
H     -2.75553583    1.24462879    0.70346583
20

O      1.47661329    2.95539486    1.52400159
C      0.41542044    2.34212413    1.42333332
C      0.14154862    1.39598624    0.28998256
C     -0.24273202    0.00508605    0.79274706
C      0.23508725   -1.15242354   -0.09543633
C      0.16300094   -0.91595368   -1.60209547
O      0.37680626   -2.14673471   -2.26157568
H      0.95391852   -0.22738396   -1.91648055
H      1.05295010    1.36352828   -0.31496136
H     -0.39652944    2.48374011    2.15575617
O     -1.07479162   -0.41070994   -2.03463782
H     -0.65813255    1.83414533   -0.31881510
H     -1.75814997   -0.75544761   -1.43236454
O      0.21369089   -0.22686331    2.11638277
H     -0.35792847   -2.04617171    0.14798525
H      1.17657355   -0.37388018    2.08681304
O     -1.65785630   -0.06592363    0.88448146
H      1.26702609   -1.42882544    0.15879372
H     -1.80959202   -0.71588387    1.59596581
H      0.48307643   -1.91380345   -3.19987589
