20

O      1.47661329    2.95539486    1.52400159
C      0.41542044    2.34212413    1.42333332
C      0.14154862    1.39598624    0.28998256
C     -0.24273202    0.00508605    0.79274706
C      0.23508725   -1.15242354   -0.09543633
C      0.16300094   -0.91595368   -1.60209547
O      0.37680626   -2.14673471   -2.26157568
H      0.95391852   -0.22738396   -1.91648055
H      1.05295010    1.36352828   -0.31496136
H     -0.39652944    2.48374011    2.15575617
O     -1.07479162   -0.41070994   -2.03463782
H     -0.65813255    1.83414533   -0.31881510
H     -1.75814997   -0.75544761   -1.43236454
O      0.21369089   -0.22686331    2.11638277
H     -0.35792847   -2.04617171    0.14798525
H      1.17657355   -0.37388018    2.08681304
O     -1.65785630   -0.06592363    0.88448146
H      1.26702609   -1.42882544    0.15879372
H     -1.80959202   -0.71588387    1.59596581
H      0.48307643   -1.91380345   -3.19987589