20

O     -1.68894044   -1.93938725    1.30459088
C     -1.00458858   -0.95317683    1.57482163
C      0.43033302   -0.78646992    1.10756152
C      0.60066407    0.22016510   -0.00932813
C     -0.54534117    1.01740846   -0.61249522
C      0.08968344   -0.08940392   -1.39760365
O      7.23014959   -0.25911128   -0.22059204
H     -0.48294811   -0.99774348   -1.54717227
H      0.73041362    0.16063583   -2.23505939
H     -1.41844234   -0.11248939    2.15666618
O      0.96170399   -2.04965975    0.70150662
H      1.00551261   -0.46400913    1.98235685
H      0.20031595   -2.58518309    0.40615666
O     -0.19258590    2.35129698   -1.02631609
H     -1.55952995    0.85665275   -0.26558339
H     -0.74157786    2.63891826   -1.77846272
O      1.86224749    0.92752796    0.02740711
H      7.03036389    0.66787728   -0.41993818
H      1.75308014    1.80491744   -0.38904660
H      6.81178021   -0.40876600    0.64053021