20

O     -0.51533179    1.43674163    3.17349506
C     -0.21749807    0.48816854    2.46913258
C      0.92551392    0.43476795    1.50164577
C      0.66416594   -0.39169711    0.24233365
C     -0.62598846    0.01994240   -0.51486315
C     -0.74887069   -0.62540605   -1.90315754
O      0.32038455   -0.15506995   -2.73522644
H     -1.68965122   -0.32664667   -2.37648073
H     -0.69448925   -1.71631719   -1.84693916
H      1.18273858    1.46328185    1.21986616
O     -0.86998288   -0.68157577    2.60969672
H      1.79993006    0.03782642    2.03136680
H     -1.51478232   -0.48523608    3.32390235
O     -0.65516026    1.44153948   -0.69015670
H     -1.50594331   -0.25249814    0.07670848
H      0.03912159    1.64094901   -1.34891277
O      1.84272616   -0.24032179   -0.56976921
H      0.59371126   -1.45640280    0.49548169
H      1.56680498   -0.20943420   -1.51007530
H      0.10260122   -0.42261154   -3.64804825
20

O     -3.38386381   -0.26245375   -0.20180320
C     -2.34986813   -0.85273300    0.07592192
C     -1.52230801   -0.68235379    1.34570827
C      0.81903592   -0.61747401    0.61980975
C      0.49482755    0.40519270   -0.48755272
C      1.77117748    0.89787336   -1.18460538
O      2.45172191    1.83448457   -0.34455802
H      1.50244170    1.43926521   -2.09734804
H      2.44749048    0.08093184   -1.45386751
H     -1.47809293    0.36916102    1.64105185
O     -1.87392836   -1.80271207   -0.76043103
H     -2.08649577   -1.20381954    2.12795756
H     -2.51734343   -1.80943735   -1.49765763
O     -0.18109193    1.54588526    0.05641359
H     -0.15962531   -0.04438756   -1.23694222
H      0.50429124    2.23417961    0.18686693
O     -0.23211700   -1.27050146    1.33552104
H      1.39006349   -1.43560219    0.16397680
H      1.47326765   -0.16200195    1.37051246
H      2.93041726    1.33650308    0.34102557
