20

O     -2.40247441    0.78681325    2.12762854
C     -1.35693066    0.57913949    1.51484800
C     -1.08180184   -0.77841323    0.97227599
C      0.60040126    0.94188535   -1.27589734
C      1.04890190   -0.21442313   -0.36191995
C     -0.04512672   -1.08633234    0.18132361
O      7.48328114    0.25755964   -0.18146835
H      0.03031753   -2.13067288   -0.11884349
H     -0.17745365    1.55232395   -0.80992541
H     -0.60019227    1.35807520    1.34936786
O     -1.98156853   -1.77320152    1.32952261
H      6.97612986    0.38851734    0.63376699
H     -2.65907532   -1.31523680    1.87266455
O      1.78350790    0.29635639    0.74512159
H      1.71883800   -0.86719058   -0.93722143
H      2.71696758    0.34082856    0.47151470
O      0.10270313    0.47897521   -2.52473767
H      1.44100748    1.61968312   -1.46597190
H      0.86197861    0.21138995   -3.06975027
H      7.26180242   -0.64607698   -0.45229864