20

O     -1.19677251    2.25086146    1.41556354
C     -1.55554186    1.08454791    1.24987142
C     -0.74300539   -0.07474419    0.56081915
C     -0.03450263    0.32855682   -0.78130346
C      1.19329982   -0.49857761   -0.30453930
C      0.68266331   -0.31972772    1.13710885
O      7.38104562    0.25755964   -0.18146835
H      0.78457552   -1.20632005    1.77016713
H      1.11573854    0.53684765    1.66667998
H     -2.55370371    0.77668386    1.60588729
O     -1.54792902   -1.28645938    0.43791271
H      6.87389434    0.38851734    0.63376699
H     -1.82730448   -1.27886104   -0.50136399
O      2.48789196    0.05916079   -0.59649172
H      1.15193243   -1.54665776   -0.63002704
H      2.72413783   -0.28480772   -1.47535119
O     -0.69600467   -0.14659445   -1.98010243
H      0.16852402    1.40403198   -0.86335187
H     -0.15399916    0.20205943   -2.71147903
H      7.15956690   -0.64607698   -0.45229864