20

O     -2.58881352   -1.75837539    0.37006023
C     -1.93288538   -1.08356832    1.16381662
C     -0.41506974   -1.17320131    1.30641883
C      0.30336849   -0.10106941    0.51549960
C     -0.17175011    0.52851590   -0.57683915
C      0.52544457    1.59275849   -1.36530509
O      1.93176197    1.38147224   -1.31559230
H      0.30363568    2.58069808   -0.95087974
H      0.19676601    1.56241295   -2.40876942
H     -2.42086443   -0.32406967    1.79783661
O      0.05987196   -2.44612266    0.88271607
H     -0.19248014   -1.07314034    2.37433654
H     -0.32607529   -2.59396929    0.00043668
O      8.12074485   -0.02676673    0.10665056
H     -1.15187742    0.26063556   -0.96649519
H      7.75813882    0.22047419   -0.75726483
O      1.55489067    0.22127021    1.02040945
H      7.33640100   -0.19370745    0.65061427
H      2.03441130    0.69950761    0.30648958
H      2.28966539    1.72624531   -2.15413934
20

O     -3.69470242    0.27124392   -0.58939805
C     -2.76257926    0.00182954    0.15571981
C     -0.96601797   -1.26578864    1.00972329
C      0.22752538   -0.45873425    0.55015875
C      0.37666892    0.07215592   -0.67713232
C      1.48008103    0.97873377   -1.11112990
O      2.71461918    0.50112613   -0.59351131
H      1.30835074    1.98710884   -0.72181829
H      1.53196976    1.02331580   -2.20302872
H     -2.37956257    0.70106632    0.91423505
O     -2.07937716   -1.16376302    0.10942905
H     -1.28071080   -0.95817674    2.01499894
H     -0.68541618   -2.32291647    1.06812057
O      8.15582383   -0.02676673    0.10665056
H     -0.37591171   -0.12678180   -1.43767564
H      7.79321780    0.22047419   -0.75726483
O      1.17716896   -0.24640890    1.53373444
H      7.37147998   -0.19370745    0.65061427
H      1.99659966    0.04379829    1.07299583
H      3.41129444    0.96219130   -1.09542150
