20

O     -2.09833743   -1.33835109    2.14604763
C     -1.42434791   -0.34799846    1.87639573
C     -1.50770155    0.38043394    0.55017851
C     -0.11793851    0.52914595   -0.08406317
C      0.56329157   -0.82144149   -0.37162298
C      2.01237628   -0.64185624   -0.83662114
O      2.78873577   -0.02494778    0.18487363
H      2.06598651   -0.03530934   -1.74706047
H      2.45315474   -1.61756580   -1.06879881
H     -0.73495767    0.08588699    2.62041470
O     -2.02855387    1.69945257    0.77554714
H     -2.20065277   -0.13296008   -0.12444168
H     -2.94354090    1.58676356    1.09631119
O     -0.17489801   -1.51467210   -1.38285294
H      0.56879786   -1.43964875    0.53252533
H     -0.34510758   -0.84986792   -2.08123039
O     -0.27866383    1.22598876   -1.34225374
H      0.51439886    1.16010554    0.55142363
H     -0.80182862    2.02421540   -1.12353173
H      3.68978704    0.07262635   -0.17124046
20

O     -3.23766275   -0.43881768   -1.70075446
C     -2.37748023   -0.89883106   -1.04562177
C     -1.40726149   -1.38497701   -0.33220872
C     -0.04709162   -0.76006757   -0.27162300
C     -0.05294963    0.62386844    0.43046241
C      1.31542353    1.31082257    0.32478110
O      1.59687380    1.68832286   -1.01882126
H      2.12615046    0.68185920    0.70770653
H      1.31796529    2.22419926    0.92946986
H     -1.38787102   -2.68452719   -3.20386466
O     -0.73903999   -3.25376099   -2.76346464
H     -1.61955147   -2.23993789    0.29750783
H     -0.91375961   -4.13405351   -3.12886734
O     -0.42665523    0.47871368    1.80812576
H     -0.80319466    1.26546116   -0.04804505
H     -0.35312526    1.35342791    2.22770801
O      0.85496489   -1.64871645    0.39636219
H      0.33152370   -0.65273186   -1.29457818
H      0.73365109   -2.54295636    0.03675373
H      2.04841959    0.94036079   -1.44722496
