20

O     -2.00092996   -0.40577822    2.63624238
C     -1.61497027   -0.82209725    1.54276443
C     -1.79105724   -0.01224305    0.26583136
C     -0.54276776    0.03407551   -0.63138285
C      0.79199005   -0.05970254    0.13901816
C      1.89386569    0.75744149   -0.55287402
O      3.09324504    0.72315687    0.21521760
H      1.58645086    1.80559375   -0.63436965
H      2.11532959    0.36452497   -1.54951500
H     -1.19346258   -1.83407504    1.43184749
O     -2.16006803    1.33141714    0.59594752
H     -2.62988517   -0.46119709   -0.27767299
H     -2.70683503    1.27147152    1.40637098
O      1.16944477   -1.44722356    0.22025102
H      0.70390796    0.30967867    1.16567355
H      0.76133062   -1.89563336   -0.54795916
O     -0.59547678   -1.05321683   -1.58103990
H     -0.58142156    0.96739859   -1.20723125
H     -0.07254385   -0.78475680   -2.35973049
H      3.77385363    1.21116523   -0.27738918
20

O     -1.17362304   -2.79539357    0.77629810
C     -0.95143177   -1.92003558   -0.06190303
C     -1.10514616   -0.43874756    0.25130858
C     -0.17179689    1.89806638    0.01577897
C      0.09584513    0.39962941   -0.24248368
C      1.41618030   -0.02086212    0.42984527
O      1.84373325   -1.25387896   -0.16355970
H      1.32029180   -0.14489740    1.51233932
H      2.20718591    0.70749292    0.22258607
H     -0.70980774   -2.17872481   -1.10566844
O     -1.28225139   -0.28165593    1.66474719
H     -2.02626348   -0.11712715   -0.24837925
H     -1.70330699   -1.10915373    1.97962593
O      0.25444931    0.24559136   -1.67849630
H     -0.64379248    2.08581596    0.98486316
H      0.93521910   -0.45335433   -1.78882158
O     -1.01893124    2.42084969   -1.01219276
H      0.75560495    2.47896714   -0.02023340
H     -0.68245139    2.01538538   -1.83923361
H      2.64029278   -1.53796707    0.32357919
