20

O     -1.17362304   -2.79539357    0.77629810
C     -0.95143177   -1.92003558   -0.06190303
C     -1.10514616   -0.43874756    0.25130858
C     -0.17179689    1.89806638    0.01577897
C      0.09584513    0.39962941   -0.24248368
C      1.41618030   -0.02086212    0.42984527
O      1.84373325   -1.25387896   -0.16355970
H      1.32029180   -0.14489740    1.51233932
H      2.20718591    0.70749292    0.22258607
H     -0.70980774   -2.17872481   -1.10566844
O     -1.28225139   -0.28165593    1.66474719
H     -2.02626348   -0.11712715   -0.24837925
H     -1.70330699   -1.10915373    1.97962593
O      0.25444931    0.24559136   -1.67849630
H     -0.64379248    2.08581596    0.98486316
H      0.93521910   -0.45335433   -1.78882158
O     -1.01893124    2.42084969   -1.01219276
H      0.75560495    2.47896714   -0.02023340
H     -0.68245139    2.01538538   -1.83923361
H      2.64029278   -1.53796707    0.32357919