20

O     -0.05605476    0.17139094   -2.33473731
C      0.89492579   -0.25648281   -1.70171205
C      1.35087988    0.20118150   -0.34541935
C      0.27170291    1.02264038    0.35972946
C     -0.79712914    0.21575012    1.14777624
C     -1.40766294   -0.99299546    0.43026246
O     -0.47680255   -2.05696230    0.28665394
H     -1.78486002   -0.71325161   -0.55804839
H     -2.27183495   -1.37135766    0.98864538
H      1.64914472   -0.65502021    0.26794103
O      1.70533595   -1.19474956   -2.22588707
H      2.24801284    0.81301623   -0.49998425
H      1.28238003   -1.43152803   -3.07767811
O     -1.87692749    1.09264214    1.52063214
H     -0.34722284   -0.12420378    2.08841162
H     -2.18712695    1.54388640    0.71630871
O      0.93102454    1.89254092    1.30371783
H     -0.23563120    1.69171958   -0.34549953
H      1.41889695    2.56699342    0.80095860
H     -0.31105078   -2.41521021    1.17792863