20

O     -0.29204237   -2.21013724    2.63415879
C     -0.96926216   -1.71824044    1.73225867
C     -0.53688140   -1.65469807    0.27221233
C     -0.19615541   -0.22270593   -0.06437878
C      1.01114031    0.18081479   -0.49923565
C      1.42548880    1.56780660   -0.88241784
O      0.46184696    2.51445163   -0.42878954
H      1.51139117    1.65053295   -1.97013268
H      2.39150865    1.80560181   -0.42697527
H     -1.94340530   -1.24888977    1.95634742
O     -1.59385139   -2.08307981   -0.57893279
H      0.31456972   -2.32864647    0.13248576
H     -2.13733700   -1.28992202   -0.74631139
O      8.15178475    0.06442983   -0.13814732
H      1.79486643   -0.56696799   -0.61038544
H      7.55363242   -0.66729109   -0.35206153
O     -1.25979146    0.66030245    0.04529798
H      7.64758130    0.60286126    0.49020885
H     -0.88797444    1.56148532   -0.11220084
H      0.90588887    3.38229215   -0.45300073