20

O     -3.41047296   -0.03279294    0.21599360
C     -2.38699716   -0.06503445   -0.46882407
C     -1.40660150    1.09553141   -0.50666769
C      0.04912279    0.64543083   -0.66038911
C      0.52377331   -0.30898549    0.44841075
C      2.02684480   -0.15625750    0.70168340
O      2.46567017   -1.24307905    1.51927600
H      2.23432178    0.78301986    1.22518094
H      2.60095174   -0.17017304   -0.23106357
H     -2.18873038   -0.90267194   -1.15719232
O     -1.53843964    1.89847135    0.66646548
H     -1.68656073    1.70673471   -1.37214712
H     -2.49554211    1.91927702    0.87191568
O      0.26860880   -1.66208922    0.01362470
H     -0.01601940   -0.15930187    1.38955078
H      0.67137039   -2.21786943    0.71455753
O      0.24777985    0.02900925   -1.94387034
H      0.66721685    1.55109626   -0.63858900
H      0.29698826   -0.93608410   -1.76493802
H      3.07671513   -1.77423168    0.97702239
20

O     -1.62617116   -3.29303885   -0.52481043
C     -0.98642690   -2.01456928   -0.61308112
C     -0.04153949   -1.66213497    0.50584789
C      0.35656835   -0.26801794    0.88943732
C      0.23480551    0.79708308   -0.21472940
C      1.05888529    2.04610151    0.11896397
O      0.85989454    3.01395002   -0.91714715
H      2.12759059    1.82256015    0.19560663
H      0.72166513    2.50549214    1.05309246
H     -1.52096893   -1.22264929   -1.12320008
O      0.43593567   -2.09023092   -0.77852683
H      0.05212346   -2.35369755    1.33401696
H     -1.00548061   -3.98278181   -0.81801650
O     -1.14746180    1.19475290   -0.33585890
H      0.54925622    0.41826761   -1.19278504
H     -1.12493559    2.08515891   -0.74574033
O     -0.43938553    0.13219340    2.01002015
H      1.39597696   -0.31875865    1.23331311
H     -1.27172242    0.46910686    1.61639606
H      1.37139074    2.72121268   -1.69279874
