20

O     -3.41047296   -0.03279294    0.21599360
C     -2.38699716   -0.06503445   -0.46882407
C     -1.40660150    1.09553141   -0.50666769
C      0.04912279    0.64543083   -0.66038911
C      0.52377331   -0.30898549    0.44841075
C      2.02684480   -0.15625750    0.70168340
O      2.46567017   -1.24307905    1.51927600
H      2.23432178    0.78301986    1.22518094
H      2.60095174   -0.17017304   -0.23106357
H     -2.18873038   -0.90267194   -1.15719232
O     -1.53843964    1.89847135    0.66646548
H     -1.68656073    1.70673471   -1.37214712
H     -2.49554211    1.91927702    0.87191568
O      0.26860880   -1.66208922    0.01362470
H     -0.01601940   -0.15930187    1.38955078
H      0.67137039   -2.21786943    0.71455753
O      0.24777985    0.02900925   -1.94387034
H      0.66721685    1.55109626   -0.63858900
H      0.29698826   -0.93608410   -1.76493802
H      3.07671513   -1.77423168    0.97702239