20

O     -1.45710657    0.53900478    2.31502445
C     -0.46480775   -0.16477377    2.36975432
C      0.82566733    0.05014432    1.63916460
C      0.76915754   -0.44094577    0.19571467
C     -0.31919045    0.23265268   -0.65706461
C     -0.32986937   -0.28426402   -2.10084088
O     -1.34824413    0.42045569   -2.81901281
H     -0.54991191   -1.35530472   -2.13828141
H      0.62049881   -0.08368833   -2.60522794
H      1.09109044    1.11183692    1.70110381
O     -0.46446987   -1.27774772    3.12600762
H      1.63215524   -0.46823221    2.17433708
H     -1.34397855   -1.26588100    3.56077237
O     -0.05726845    1.64591125   -0.69910339
H     -1.31361591    0.09417352   -0.22083568
H     -0.72670168    1.99509950   -1.32348856
O      2.04866233   -0.15605252   -0.39785962
H      0.63403848   -1.52828889    0.17758760
H      2.04636046    0.81213957   -0.55286585
H     -1.29246598    0.12376074   -3.74488578