20

O     -1.97999256    0.93455488    2.47133497
C     -1.58385071    0.97412379    1.30631583
C     -0.75625552   -0.12236311    0.52677383
C     -0.01319170    0.40869837   -0.75078149
C      1.19306694   -0.47922384   -0.33588223
C      0.65804775   -0.41907441    1.10869617
O      7.06211206    0.33989949   -0.19843595
H      0.74659291   -1.35545067    1.66769372
H      1.08014685    0.39057134    1.71551499
H     -1.81005131    1.87013209    0.70348183
O     -1.54874436   -1.32022394    0.27247248
H      7.90423114   -0.07724574    0.03775530
H     -1.98202150   -1.13865268   -0.58415151
O      2.49398855    0.09759998   -0.55634323
H      1.14608290   -1.49272504   -0.75599901
H      2.81628997   -0.30210266   -1.38332436
O     -0.65466562    0.09505333   -2.00887684
H      0.21090360    1.48272285   -0.70736750
H     -0.01634615    0.37635974   -2.68955768
H      6.39358691   -0.26265375    0.16068065