20

O     -2.02808422    1.28441833    0.72145274
C     -1.60506366    0.22698690    1.18141938
C     -0.19321063   -0.34080131    1.01595986
C      0.56440365    0.31611746   -0.10359477
C      0.45971401   -0.00896003   -1.39684307
C      3.21817632    2.25956209   -4.30305218
O      3.83028947    1.33034027   -3.42774263
H      2.66489171    1.72232666   -5.07724558
H      2.52744751    2.88414598   -3.73172944
H     -2.25788139   -0.37698370    1.83516939
O     -0.28358665   -1.74686760    0.77566062
H      0.33814227   -0.20008166    1.96424216
H     -0.27272639   -2.18458429    1.64349397
O      1.21137371    0.62373102   -2.35416546
H     -0.20595241   -0.77319926   -1.77691390
H      0.93967939    0.26946512   -3.22102059
O      1.47377498    1.29324473    0.27784978
H      3.98446016    2.89093914   -4.75944378
H      1.85941734    1.61751428   -0.56271010
H      4.43700904    0.79072305   -3.96269017
20

O     -1.49051168    2.49386049    0.93244285
C     -2.02033100    1.44169515    1.28197920
C     -1.30865130    0.12169429    1.59024211
C      0.05494594    0.06506059    0.95648622
C      0.29399797   -0.35442674   -0.29305266
C      1.58034957   -0.75718035   -2.18324601
O      2.86925927   -0.51754158   -2.72083112
H      1.51912019   -1.59671559   -5.34490989
H      1.37270424   -1.82959787   -2.26221232
H     -3.10881667    1.41989166    1.46192432
O     -2.11200524   -0.95762802    1.10688800
H     -1.23132374    0.01725232    2.67811726
H     -2.77474329   -1.14925013    1.79195981
O      1.56223987   -0.36460564   -0.81492567
H     -0.49791059   -0.69020760   -0.95029891
H      1.95329472   -2.17180922   -5.17650621
O      1.10984492    0.44421703    1.77403079
H      0.84879056   -0.19527057   -2.77652344
H      1.91552158    0.36342722    1.22435521
H      2.93663959    0.44860978   -2.79733565
