20

O     -0.77163319   -1.12512728    2.38714748
C     -0.58706520   -1.95072105    1.49627603
C      0.02839644   -1.69489550    0.11395129
C      0.38391333   -0.25883582   -0.18290484
C     -0.45309868    0.78391770   -0.02486958
C     -0.19418526    2.23254165   -0.28982837
O      1.10886610    2.42694587   -0.83337689
H     -0.27085514    2.80077696    0.64224787
H     -0.92858405    2.61624251   -1.00439456
H     -0.84652300   -3.00833904    1.67700605
O     -0.86289730   -2.16505392   -0.89629359
H      0.93923349   -2.30541075    0.06967906
H     -0.71199393   -3.11947689   -0.99132682
O      7.70540923   -0.11879177   -0.30365612
H     -1.45410063    0.57673639    0.35067810
H      6.92351184   -0.55816246    0.06315565
O      1.67105411   -0.07876927   -0.66710230
H      7.80360748    0.67695423    0.24050047
H      1.76090383    0.88486244   -0.85260330
H      1.18856909    3.38460599   -0.99428562
20

O     -1.54355999    1.85403304    0.12590186
C     -0.80794387    1.08811773    0.75314488
C     -0.94720753    0.94011659    2.26364522
C      0.17799533    0.19602730    0.04914029
C      0.08847548    0.06037413   -1.28597373
C      0.92168813   -0.80388529   -2.17491101
O      1.89406568   -1.51497392   -1.41503682
H      1.43862916   -0.19055023   -2.91868040
H      0.28358098   -1.52966629   -2.68854939
H     -1.21328456    1.91468235    2.68694671
O     -1.95631035    0.00198067    2.60694496
H     -0.00255080    0.63948659    2.72354400
H     -2.77306640    0.30617098    2.17147193
O      7.92884259   -0.02676673    0.10665056
H     -0.68139507    0.62329763   -1.81305013
H      7.56623655    0.22047419   -0.75726483
O      1.11400789   -0.48304475    0.80247558
H      7.14449874   -0.19370745    0.65061427
H      1.62541416   -1.03469448    0.16704681
H      2.38146175   -2.06747205   -2.05406075
