20

O     -0.77163319   -1.12512728    2.38714748
C     -0.58706520   -1.95072105    1.49627603
C      0.02839644   -1.69489550    0.11395129
C      0.38391333   -0.25883582   -0.18290484
C     -0.45309868    0.78391770   -0.02486958
C     -0.19418526    2.23254165   -0.28982837
O      1.10886610    2.42694587   -0.83337689
H     -0.27085514    2.80077696    0.64224787
H     -0.92858405    2.61624251   -1.00439456
H     -0.84652300   -3.00833904    1.67700605
O     -0.86289730   -2.16505392   -0.89629359
H      0.93923349   -2.30541075    0.06967906
H     -0.71199393   -3.11947689   -0.99132682
O      7.70540923   -0.11879177   -0.30365612
H     -1.45410063    0.57673639    0.35067810
H      6.92351184   -0.55816246    0.06315565
O      1.67105411   -0.07876927   -0.66710230
H      7.80360748    0.67695423    0.24050047
H      1.76090383    0.88486244   -0.85260330
H      1.18856909    3.38460599   -0.99428562