20

O     -2.61827824    0.74214828    0.22255734
C     -1.98723601   -0.10066927    0.85674899
C     -0.65838638   -0.74491773    0.44698763
C      0.29758937    0.18807347   -0.24779258
C      1.55840216    0.40184821    0.14337307
C      0.37595607    2.89923189    2.86001373
O     -0.38920208    1.88062863    2.24253268
H      0.89475677    2.48967997    3.73020582
H      1.11071140    3.27515395    2.14416579
H     -2.42235998   -0.51973009    1.78006476
O     -0.92212050   -1.85193032   -0.40657223
H     -0.20585503   -1.12988466    1.36838033
H     -1.14092255   -1.44979369   -1.27069968
O      2.39102033    1.22664462   -0.57004736
H      2.02512386   -0.06725629    0.99970941
H      3.29695112    1.11382907   -0.22667445
O     -0.16130435    0.78676685   -1.41101246
H     -0.28239589    3.71599192    3.16594991
H      0.54737618    1.40487155   -1.68502277
H     -1.03186091    1.56685326    2.90131864