20

O     -1.80030534    2.79103241    0.57735250
C     -2.11054316    1.69972542    1.05007373
C     -1.24800064    0.45253684    0.97325092
C     -0.17023848    0.55471578   -0.12063997
C      1.03642361   -0.36066624    0.18565564
C      1.93537149   -0.59303875   -1.03212094
O      3.09867723   -1.31543580   -0.62700673
H      2.25533680    0.34819951   -1.48715590
H      1.42913950   -1.20348694   -1.78753587
H     -3.03357438    1.59043416    1.64562295
O     -2.09635711   -0.66735309    0.68502889
H     -0.81202254    0.31422534    1.96808362
H     -2.21933751   -0.64008890   -0.28986978
O      0.64398503   -1.65876726    0.66259726
H      1.62640303    0.08366307    0.99592702
H     -0.23924249   -1.85742080    0.29286085
O     -0.79375588    0.14922214   -1.35963443
H      0.19490960    1.58111860   -0.24294070
H     -0.46712048    0.75398324   -2.05402753
H      2.77025171   -2.02259875   -0.03552152