20

O     -2.27804337   -0.73788706    1.80719507
C     -1.31791816   -0.10571569    1.37078413
C     -0.07116736   -0.78045581    0.80554398
C      0.67658454    0.14196848   -0.11852107
C      0.18008033    0.71582691   -1.22016762
C      7.89381540   -0.27519646   -0.24879023
O      8.24926363    0.34437881    0.97353768
H      8.31936162    0.28959518   -1.08188205
H      8.29168666   -1.29263724   -0.26035699
H     -1.29643978    0.99647464    1.42986986
O     -0.40269453   -1.98143823    0.12266719
H      0.56492206   -1.03439077    1.66109641
H     -0.96134327   -2.48839977    0.74142193
O      0.94951372    1.55952117   -1.98161411
H     -0.82773347    0.57251453   -1.58786111
H      0.42383299    1.82927000   -2.75771796
O      1.99673589    0.39128410    0.23263597
H      6.80522359   -0.31097642   -0.33715804
H      2.36367041    0.92142751   -0.50533265
H      7.88281565    1.24483613    0.95464963
20

O     -2.45956892   -0.13334649    1.84000768
C     -1.27319462    0.32379629    1.32850665
C     -0.58932204   -0.29816680    0.35862613
C      0.69323188    0.15718427   -0.12280869
C      1.05693829    0.16196816   -1.41072651
C      8.40622561    0.26656978   -0.20072815
O      7.60054763   -0.87736888    0.01511837
H      9.42928078    0.05905472    0.12240771
H      8.40474343    0.50628452   -1.26663418
H     -0.95693871    1.24822548    1.79562434
O     -1.09380090   -1.42046160   -0.26904794
H     -2.30766079   -1.05765092    2.11128384
H     -2.03419490   -1.47152258   -0.02428747
O      2.28601306    0.62609261   -1.80872492
H      0.41677332   -0.16702770   -2.21829216
H      2.29692272    0.62187395   -2.78387809
O      1.57180560    0.60218918    0.84675150
H      7.99950268    1.11106661    0.36098594
H      2.39299602    0.80684615    0.35696566
H      7.62119090   -1.06560674    0.96885031
