20

O      1.20291686    2.29007889    0.76067370
C      0.65025963    1.33603822    1.30370488
C     -0.83081151    0.99924465    1.17104842
C     -1.07147828   -0.34074713    0.44031369
C     -0.46097069   -0.45040510   -0.98573337
C      0.88076176   -1.20797093   -1.07854445
O      1.64755026   -1.09534267    0.12038858
H      1.48776710   -0.83378943   -1.90926376
H      0.69134644   -2.27504273   -1.23322819
H      1.22497866    0.66062411    1.95970316
O     -1.53838271    2.05490233    0.52206909
H     -1.21827673    0.93254927    2.19397786
H     -1.09547214    2.15148187   -0.34960163
O     -0.35450036    0.85330388   -1.57460983
H     -1.17048473   -0.99726753   -1.61945604
H      0.06212013    0.76565371   -2.45029344
O     -0.73174087   -1.45946990    1.26824622
H     -2.15917585   -0.40380690    0.30060336
H      0.24510540   -1.54146588    1.24478330
H      2.53848763   -1.43856870   -0.08478154