20

O     -2.43392729   -0.20068821    1.66875636
C     -1.74256322   -0.03403858    0.66782605
C     -0.55249783   -0.91166598    0.30835578
C      0.63639499   -0.13735023   -0.21294079
C      0.87551848    1.17023957   -0.05178986
C      8.19689557    0.00068375   -0.31058275
O      7.10514497   -0.35604066    0.51714352
H      9.12941242   -0.33406574    0.15036880
H      8.07909031   -0.48394522   -1.28263097
H     -2.01804784    0.72880701   -0.08206637
O     -1.02542658   -1.81180306   -0.69466345
H     -0.24825806   -1.49065227    1.18743203
H     -1.57296259   -2.46977688   -0.23180940
O      2.00488828    1.74854867   -0.57869969
H      0.24605632    1.86531544    0.48795768
H      2.00139655    2.69611239   -0.34726814
O      1.57750501   -0.89502022   -0.90507683
H      8.21357545    1.08488150   -0.44607533
H      2.25192382   -0.25802765   -1.21601337
H      7.23728900    0.08848638    1.37177674