20

O     -2.65067986   -1.59885459    1.52567738
C     -2.00693700   -0.58991590    1.30218405
C     -0.53560257   -0.43186022    1.52547235
C      0.29487881   -0.77722428    0.29301079
C      0.24937453    0.27196830   -0.84823437
C      1.56561997    0.38470484   -1.63356247
O      1.38341035    1.27543797   -2.73800780
H      1.90503659   -0.58017118   -2.01854480
H      2.35469604    0.82054017   -1.00960252
H     -0.31378748    0.56923266    1.91182107
O     -2.59721104    0.51512677    0.82136434
H     -0.26504401   -1.10108607    2.35336168
H     -3.54600844    0.28800758    0.73728508
O     -0.05243558    1.59526662   -0.37478854
H     -0.56673525    0.01644478   -1.53457725
H      0.64134464    1.84068682    0.26288580
O      1.64905976   -0.95274574    0.73922287
H     -0.01768832   -1.74186281   -0.12768913
H      1.68943376   -1.80359141    1.21496603
H      0.81927511    1.99989568   -2.40224458