20

O     -3.51089801   -0.07365998    1.78936943
C     -2.47173442    0.32086299    1.25446529
C     -1.41423798   -0.64734074    0.75483369
C     -0.00848609   -0.02281782    0.63506709
C      0.49710766    0.23940233   -0.80945420
C      1.87177291   -0.42060248   -1.04568273
O      2.83770375    0.07362848   -0.12354697
H      2.23661918   -0.19256348   -2.05191328
H      1.79986560   -1.50725570   -0.92992800
H     -2.33646448    1.38535850    1.00697097
O     -1.85979155   -1.26262548   -0.45290837
H     -1.35840024   -1.44664963    1.50475779
H     -2.76337793   -1.58925393   -0.27049875
O      0.59065971    1.66577533   -1.00619873
H     -0.18384776   -0.14336294   -1.57335453
H      1.12305110    1.81229415   -1.80869874
O      0.09471036    1.17072016    1.42985603
H      0.66771568   -0.74578916    1.10754854
H      0.53283629    1.82300371    0.83761046
H      3.65519622   -0.43912432   -0.24829495