20

O      3.34960554    0.93258110   -0.94913322
C      2.42400204    0.17996931   -1.25304079
C      1.35731414   -0.28462723   -0.26911752
C     -0.03808431    0.22498245   -0.72363052
C     -1.19671525   -0.45084154    0.03830363
C     -1.29934699   -0.13590173    1.52690057
O     -1.37400871   -1.35165365    2.26257492
H     -2.20945964    0.43915320    1.73248981
H     -0.46504556    0.44818554    1.91480477
H      2.34077313   -0.22534976   -2.27568420
O      1.70337447    0.15674309    1.04317230
H      1.38339427   -1.38008416   -0.27780040
H      2.03171615    1.07190756    0.92866838
O     -0.08707912    1.63893232   -0.59797172
H     -1.15583702   -1.53419169   -0.13499301
H     -1.00738010    1.91432171   -0.46818220
O     -0.19535513   -0.07722787   -2.10974037
H     -2.13986459   -0.12627986   -0.42426527
H     -1.11071083    0.13246885   -2.35582980
H     -2.31129249   -1.57308762    2.39247463
20

O     -1.80962645    0.34879866    1.61402008
C     -1.45231834   -0.80842601    1.39340322
C     -1.39275091   -1.43747798   -0.00032854
C      1.28048927    1.54951371   -0.17513853
C      1.32996137    0.02287089   -0.18269361
C      0.45949954   -0.61400106   -1.26175258
O     -0.93765635   -0.54100456   -0.99431408
H      0.63406116   -0.10881772   -2.21815577
H      0.74712485   -1.66213370   -1.41019866
H     -1.12941430   -1.46587994    2.21656922
O     -2.69805257   -1.85078218   -0.36121071
H     -0.76562650   -2.33375956    0.05121441
H     -3.20782442   -1.01997409   -0.39725727
O      0.01470322    2.09266717    0.09865020
H      1.06100797   -0.35623045    0.80818568
H     -0.44187114    1.52953791    0.75235807
O      2.15649677    2.01568004    0.83089296
H      2.37155727   -0.28275821   -0.34639323
H      2.15529748    2.98210749    0.72057541
H      1.62494207    1.94006955   -1.13842626
