20

O     -1.80962645    0.34879866    1.61402008
C     -1.45231834   -0.80842601    1.39340322
C     -1.39275091   -1.43747798   -0.00032854
C      1.28048927    1.54951371   -0.17513853
C      1.32996137    0.02287089   -0.18269361
C      0.45949954   -0.61400106   -1.26175258
O     -0.93765635   -0.54100456   -0.99431408
H      0.63406116   -0.10881772   -2.21815577
H      0.74712485   -1.66213370   -1.41019866
H     -1.12941430   -1.46587994    2.21656922
O     -2.69805257   -1.85078218   -0.36121071
H     -0.76562650   -2.33375956    0.05121441
H     -3.20782442   -1.01997409   -0.39725727
O      0.01470322    2.09266717    0.09865020
H      1.06100797   -0.35623045    0.80818568
H     -0.44187114    1.52953791    0.75235807
O      2.15649677    2.01568004    0.83089296
H      2.37155727   -0.28275821   -0.34639323
H      2.15529748    2.98210749    0.72057541
H      1.62494207    1.94006955   -1.13842626