20

O      3.34960554    0.93258110   -0.94913322
C      2.42400204    0.17996931   -1.25304079
C      1.35731414   -0.28462723   -0.26911752
C     -0.03808431    0.22498245   -0.72363052
C     -1.19671525   -0.45084154    0.03830363
C     -1.29934699   -0.13590173    1.52690057
O     -1.37400871   -1.35165365    2.26257492
H     -2.20945964    0.43915320    1.73248981
H     -0.46504556    0.44818554    1.91480477
H      2.34077313   -0.22534976   -2.27568420
O      1.70337447    0.15674309    1.04317230
H      1.38339427   -1.38008416   -0.27780040
H      2.03171615    1.07190756    0.92866838
O     -0.08707912    1.63893232   -0.59797172
H     -1.15583702   -1.53419169   -0.13499301
H     -1.00738010    1.91432171   -0.46818220
O     -0.19535513   -0.07722787   -2.10974037
H     -2.13986459   -0.12627986   -0.42426527
H     -1.11071083    0.13246885   -2.35582980
H     -2.31129249   -1.57308762    2.39247463