20

O     -0.93105399   -0.86234965    2.74379049
C     -0.91971736   -0.15304167    1.74794098
C     -1.30094518   -0.60495586    0.36856654
C     -0.90006623    0.29742568   -0.79957071
C      0.60924236    0.56139764   -1.03626889
C      1.55791451   -0.58188882   -0.65870600
O      1.66435068   -0.68015055    0.76088924
H      2.56240810   -0.36773783   -1.03794834
H      1.21822740   -1.53821748   -1.06678784
H     -0.90262243   -1.61445159    0.21334312
O     -0.61980837    1.15083892    1.86283999
H     -2.39406387   -0.70944515    0.36470036
H     -0.43107960    1.25041649    2.82124057
O      1.01946726    1.75135574   -0.35446092
H      0.75272486    0.76223996   -2.10494357
H      1.03962035    1.51174639    0.59469593
O     -1.43464136   -0.33035287   -1.98404484
H     -1.42007336    1.25806109   -0.69432649
H     -1.41547552    0.33701031   -2.69391435
H      2.24559177   -1.43790074    0.95296474