20

O      2.47821071    0.53523267    1.39969996
C      1.54752966    1.28251671    1.14286147
C      0.89166301    1.43125663   -0.19592057
C      0.34366665    0.09990627   -0.71627862
C     -0.35566285   -0.76266812    0.36285253
C     -0.92349003   -2.07279081   -0.20363825
O     -1.98138570   -1.81803333   -1.12841595
H     -1.34646585   -2.67687798    0.60521573
H     -0.14519419   -2.65688374   -0.70468800
H      0.10217367    2.18996224   -0.14746659
O      0.97429622    2.03868761    2.09381347
H      1.63722305    1.82826310   -0.89646463
H      1.39038556    1.75899104    2.93502756
O     -1.42494088   -0.00884668    0.94627629
H      0.34643706   -1.01600427    1.16289075
H     -2.15634953   -0.05109287    0.29729200
O     -0.60072410    0.36292933   -1.77746626
H      1.15972484   -0.48258826   -1.15921992
H     -0.27600929    1.12609958   -2.29011750
H     -1.66108801   -1.10805913   -1.72625348
20

O     -0.97384836   -1.06011335   -2.09713674
C     -1.16263135   -0.26087948   -1.19415612
C     -0.50114029   -1.48558031    1.42595233
C      0.53118850   -0.70460616    0.61622211
C     -0.07911024    0.37019659   -0.31095399
C      0.99459215    0.94210401   -1.26242248
O      1.88735375    1.80823234   -0.55567060
H      0.53022012    1.54817798   -2.04880482
H      1.57499337    0.15306776   -1.75367479
H     -1.21391124   -0.81706077    1.91972661
O     -2.41823765    0.11191678   -0.87142507
H     -0.01158827   -2.06782011    2.21374868
H     -3.00363783   -0.38479413   -1.47906320
O     -0.55353352    1.44275983    0.52970177
H     -1.06009512   -2.17632677    0.78688357
H     -0.17205226    2.26868417    0.17134316
O      1.42940868   -0.06563122    1.54471091
H      1.12766092   -1.41787504    0.03644442
H      0.85932055    0.49527782    2.11097901
H      2.21504810    1.30027003    0.21759523
