20

O     -1.66377858    2.92228583    0.59025810
C     -1.03563049    1.89486851    0.37847203
C     -0.62182427   -1.16115852   -0.07710723
C     -0.25941859    0.04962883   -0.97240391
C      1.20560435   -0.04455607   -0.47488254
C      0.74886753   -1.03345944    0.61333669
O      7.41570383    0.25755964   -0.18146835
H      1.32636200   -1.96202485    0.65775433
H      0.70842435   -0.60868107    1.62252015
H     -0.45776896    1.38213509    1.15660437
O     -1.76656955   -1.02034120    0.78596104
H      6.90855255    0.38851734    0.63376699
H     -2.53293755   -0.94651710    0.18763616
O      1.81831080    1.17149033   -0.00592155
H      1.85350560   -0.51972633   -1.22296299
H      2.71530984    0.91843506    0.27639190
O     -1.01188421    1.27737744   -0.82517134
H     -0.31892958   -0.23105274   -2.03294188
H     -0.70764269   -2.08870378   -0.65754333
H      7.19422511   -0.64607698   -0.45229864