20

O     -2.31948471    1.82169053    0.82610221
C     -1.59739902    0.93188564    1.27695975
C     -0.79003257   -0.14192976    0.45622725
C      0.07159123    0.45060296   -0.71565697
C      1.20266485   -0.52800767   -0.29401137
C      0.55237264   -0.59523571    1.09973596
O      6.86708358   -0.35372469   -0.01551536
H      0.54130524   -1.59213807    1.55060702
H      0.97050033    0.11051102    1.82709329
H     -1.47205129    0.84527335    2.36977825
O     -1.64745814   -1.24452729    0.04220362
H      7.56101673   -0.01281077   -0.59963476
H     -2.04512157   -0.91574104   -0.79010389
O      2.54236403   -0.00219207   -0.34029021
H      1.15345607   -1.48998661   -0.82120645
H      2.85090050   -0.17478580   -1.24740845
O     -0.47084569    0.25966552   -2.04445904
H      0.33194038    1.50660030   -0.56453862
H      0.12529774    0.75831470   -2.63103236
H      6.71725914    0.36653546    0.61515013