12

H        1.1142711894      0.4437365302     -2.3300244377                 
H       -1.3379157508      0.0851090192     -2.2058389891                 
C        0.6317828161      0.3316777109     -1.3676807372                 
C       -0.7507995833      0.1294777375     -1.2976628576                 
H        2.7323747639      1.0853580926     -0.6031305455                 
C        1.5704781483      0.9575273502     -0.5751021397                 
C       -1.3744692273     -0.0153705534     -0.0537271443                 
H       -2.4440740153     -0.1717972117      0.0004406727                 
C        0.7670260053      0.2441795645      1.0501731035                 
C       -0.6155563997      0.0419795401      1.1201909766                 
H        1.3541423088      0.2885473792      1.9583491986                 
H       -1.0980446639     -0.0700802762      2.0825346203                 
