12

H        1.0763198649      0.6068250133     -2.4184789885                 
H       -1.3393625577      0.0706737610     -2.2333392138                 
C        0.6268100885      0.4639182045     -1.4443250757                 
C       -0.7351912628      0.1616273434     -1.3399402214                 
H        2.4614507714      0.8153454680     -0.3702629124                 
C        1.4077681723      0.5814855522     -0.2895079806                 
C       -1.3162321111     -0.0230956157     -0.0807384429                 
H       -2.3699143842     -0.2569570523      0.0000165832                 
C        0.8267270578      0.3967638875      0.9696938018                 
C       -0.5352742630      0.0944730495      1.0740786961                 
H        1.4308982576      0.4877182278      1.8630927541                 
H       -0.9847840423     -0.0484329561      2.0482327207                 
