 20
 Step 0
  C -0.411305 -1.096436 2.607749
  C -0.536015 0.271005 2.121130
  C -0.521312 0.627010 0.785882
  C -0.340936 -0.319397 -0.322261
  H -0.471915 -1.313943 3.651753
  H -0.237496 -1.918130 1.946021
  H -0.656408 1.042912 2.853551
  H -0.708290 1.648678 0.529892
  H 0.009810 -1.312108 -0.156043
  H -0.501705 -0.019903 -1.332331
  C 3.700026 -2.014009 -0.126846
  C 3.408488 -0.939836 -1.072042
  C 3.304279 0.397991 -0.733054
  C 3.409024 0.921646 0.626207
  H 3.807334 -3.022222 -0.462044
  H 3.803452 -1.833343 0.921413
  H 3.316874 -1.210936 -2.103224
  H 3.142244 1.107479 -1.516886
  H 3.539798 0.279969 1.470485
  H 3.351404 1.970232 0.816251
20
 Step 7
  C -0.441132 -0.745177 2.616968
  C 0.113437 0.323424 2.013414
  C 0.831111 0.368659 0.689279
  C 0.763429 -0.909382 -0.143832
  H -0.885034 -0.659157 3.589858
  H -0.458363 -1.722048 2.176769
  H 0.085982 1.262731 2.536828
  H 0.353824 1.145429 0.098871
  H 0.908592 -1.840032 0.363749
  H 0.070962 -0.953723 -0.963110
  C 3.347559 -1.871090 -0.545902
  C 2.800927 -0.639234 -1.143064
  C 2.898850 0.663471 -0.520681
  C 2.309668 0.771828 0.856664
  H 3.189132 -2.815238 -1.026315
  H 3.746901 -1.868908 0.448797
  H 2.690725 -0.661647 -2.212252
  H 2.818603 1.518900 -1.163339
  H 2.810493 0.115847 1.554782
  H 2.399385 1.771731 1.270493
