39

  N   0.18634706764732      1.98642532500276     -0.00957906473545
  C   -0.85446362993586      2.94363313080262      0.01635909879115
  C   1.31185700789190      2.71366077276199     -0.02161188255758
  C   -0.29287899232943      4.28970016439582      0.02012911693062
  C   1.05046986829350      4.14655505830880      0.00006579704998
  H   -0.87748316906852      5.20042120841271      0.04198765225071
  H   1.81318157876506      4.91419320261858     -0.00130994688137
  N   1.97815719325202     -0.18971855616098     -0.00797155777968
  C   2.70711704621654     -1.31615649593443      0.02951677268471
  C   2.93180741818334      0.84904305800170     -0.02040468550154
  C   4.13785174798216     -1.05479848993160      0.05443488720085
  C   4.28008140723892      0.28874998601985      0.01776414476452
  H   4.90535607198957     -1.81645481743674      0.09515608977747
  H   5.19033938445295      0.87467124350550      0.02245614495284
  N   -0.19359663092401     -1.98183581805062     -0.03496345070744
  C   0.84473310258740     -2.93628362649485      0.00254675126454
  C   -1.31988729948239     -2.70967589336401     -0.04061623837365
  C   0.28264440699630     -4.28464513616576      0.01781342894422
  C   -1.06047224038257     -4.14222353213825     -0.00745759147561
  H   0.86775804868657     -5.19484296580519      0.04940234452352
  H   -1.82357281683015     -4.90937238669474     -0.00239851365222
  N   -1.98132487823315      0.19918695905134      0.00997793693776
  C   -2.71325840222121      1.32431465588913      0.05868897176199
  C   -2.93607609736245     -0.84253702834970     -0.01454121178858
  C   -4.14392877668350      1.05870432581602      0.08586189736427
  C   -4.28410247906832     -0.28378395173158      0.03237404045848
  H   -4.91266108041073      1.81867354102700      0.13485261828331
  H   -5.19345223904157     -0.87108241796893      0.03059455590787
  C   2.16674646976963     -2.64581536523848      0.03400348527708
  H   2.87661635714845     -3.46619482414014      0.06433484249233
  C   -2.17610922992987      2.65224786044470      0.06093520064702
  H   -2.88615853859984      3.47246992965928      0.09045108425556
  C   -2.64761219695981     -2.16494840811782     -0.05449085867753
  H   -3.47045139021170     -2.87234343621889     -0.07512441569776
  C   2.64095976025759      2.17163404678599     -0.04054274401873
  H   3.46206293076627      2.88128118062476     -0.05278801428043
  Fe  -0.01100296474683      0.01210467957567     -0.20581155751414
  O   0.00359105802187      0.00262254544759     -1.89959825956064
  O   -0.62653487372547      0.86189027579090     -2.55772686931844
