6

C       -4.5106396456      2.1651266319     -0.0363690665                 
C       -3.1798916354      2.1668043075     -0.0227281881                 
F       -5.2033616144      2.9443093454      0.8349535831                 
H       -5.0513507900      1.5424610567     -0.7423295690                 
H       -2.6401716350      2.7896675342      0.6834461377                 
H       -2.6220495963      1.5459277600     -0.7169728972                 
