20

O     -1.98042887    0.12975028   -2.32955911
C     -0.93656309    0.64129130   -1.96111272
C      0.36791927   -0.06558274   -1.73201440
C      0.50771477   -0.67080736   -0.33460394
C      0.03625138    0.24442325    0.81641709
C      0.54156833   -0.25254924    2.17997804
O      1.71508017    0.46503904    2.56056695
H      0.79941527   -1.31603488    2.15578730
H     -0.21023424   -0.11727206    2.96503613
H      0.45754699   -0.83861808   -2.50483619
O     -0.85729663    1.96226697   -1.70809210
H      1.17885907    0.64986023   -1.91412908
H     -1.78428244    2.27310772   -1.78441145
O     -1.39763770    0.26041337    0.84503117
H      0.38460228    1.26974936    0.64971322
H     -1.66966362   -0.66093742    0.64489422
O     -0.23950909   -1.89720833   -0.25272886
H      1.56343330   -0.92898668   -0.18689276
H      0.10357825   -2.50343987   -0.93424054
H      1.41964662    1.35553514    2.82519704
20

O     -3.45188319   -1.12897343   -0.09432509
C     -2.37415316   -0.77142021    0.36690362
C     -2.17999285   -0.58692092    1.84262160
C     -0.08523541    0.04460123    0.00611586
C      0.93106539   -0.05085190   -1.16104899
C      2.29971960    0.51928465   -0.77107685
O      3.17124071   -0.52641180   -0.34657961
H      2.22406287    1.23372600    0.05459958
H      2.77400965    1.04520344   -1.60717610
H     -1.93857212    0.44865001    2.08349344
O     -1.30737922   -0.57111662   -0.43565335
H     -1.41704132   -1.27484729    2.21330506
H     -3.11879821   -0.82848801    2.35265540
O      0.44957308    0.68157784   -2.30304286
H      1.02371082   -1.09704694   -1.47482524
H     -0.23734638    1.29002058   -1.96491039
O     -0.31803140    1.42657366    0.27162072
H      0.31153026   -0.46374486    0.89246773
H     -0.27268484    1.55250482    1.23404740
H      3.51620573   -0.94232025   -1.15919194
