9

C     -6.71973191    0.97169982   -0.00100158
C     -5.48025693    1.83959518   -0.06796602
H     -7.61751608    1.55655289   -0.21963802
H     -6.82484351    0.52298128    0.99225823
H     -6.65143507    0.14653559   -0.71748596
O     -4.32512610    1.05721469    0.19747293
H     -5.52990269    2.65196225    0.66339113
H     -5.37351663    2.27836895   -1.06427390
H     -4.42502408    0.67975345    1.08806057
9

C     -6.49413326    0.83935851    0.03209537
C     -5.72699927    1.92369104   -0.10952584
H     -6.18200180    1.29224446    0.19371974
H     -6.89758954    0.56158414    1.00078369
H     -6.73375375    0.20815236   -0.81787722
O     -5.23691162    1.16742188    0.01998179
H     -5.48737524    2.55490100    0.74044295
H     -5.32354596    2.20146036   -1.07821682
H     -4.86504255    0.95585037    0.88941372
