9

C      0.52650131   -0.05963711    0.87728351
C     -0.00536754    0.07631184   -0.53339187
H      1.61148633    0.07509341    0.90023927
H      0.21696991    1.07008285   -0.93344885
H      0.43973060   -0.68056131   -1.18614832
O     -1.41333753   -0.10530391   -0.51636128
H     -1.72410277   -0.01253636   -1.43306840
H      0.06417191    0.68196560    1.53711397
H      0.28394779   -1.04541501    1.28778198