9

C     -0.83669404   -0.32881898   -0.09776037
C      0.40278288    0.53907349   -0.16472564
H     -1.73447860    0.25603988   -0.31637992
H     -0.94179708   -0.77755233    0.89549367
H     -0.76840704   -1.15397262   -0.81425798
O      1.55791123   -0.24330818    0.10072015
H      0.35313717    1.35144401    0.56662759
H      0.50952643    0.97784240   -1.16103532
H      1.45801903   -0.62074767    0.99131783