20

O     -2.57427264   -0.42637121    1.29557539
C     -1.44141142    0.03989373    1.42912570
C     -0.20049505   -0.65207846    0.87738602
C      0.52021784    0.30813694   -0.03206720
C      0.76646473    0.11231794   -1.33182989
C      7.87351329   -0.27519646   -0.24879022
O      8.22896239    0.34437863    0.97353753
H      8.29905951    0.28959490   -1.08188222
H      8.27138394   -1.29263747   -0.26035711
H     -1.26562883    0.95783642    2.01583271
O     -0.56436500   -1.84331544    0.18065985
H      0.43805774   -0.93441452    1.72012413
H     -1.51545418   -1.97965543    0.37015603
O      1.44159190    1.04755436   -2.07479656
H      0.46991317   -0.77194765   -1.88251386
H      1.53072405    0.69303058   -2.97961578
O      0.96984144    1.47934201    0.56527415
H      6.78492142   -0.31097577   -0.33715758
H      1.42481628    1.96967072   -0.15331069
H      7.86251494    1.24483617    0.95464960
20

O     -3.10016245    0.51831509    0.39629120
C     -2.02858866    0.57180769    0.99599639
C     -1.12889874   -0.62529963    1.23850044
C      0.58948434   -0.15707716   -0.29732119
C      1.35984418   -0.45873449   -1.34540164
C      8.43547927    0.26656948   -0.20072800
O      7.62979897   -0.87736769    0.01511778
H      9.45853375    0.05905252    0.12240879
H      8.43399850    0.50628422   -1.26663403
H     -1.64014752    1.53497505    1.36784428
O     -0.37931648   -1.04421182    0.11103019
H     -0.47858507   -0.42817118    2.09951347
H     -1.77827144   -1.45908780    1.52835736
O      2.32874909    0.39955319   -1.80007831
H      1.27316971   -1.38211330   -1.90217335
H      2.72960138   -0.00546291   -2.59213122
O      0.76822755    1.04794289    0.35164267
H      8.02875739    1.11106706    0.36098571
H      1.48489411    1.48756436   -0.15207031
H      7.65044102   -1.06560558    0.96884974
