6
0.0
C       -4.510640       2.165127      -0.036369
C       -3.179892       2.166804      -0.022728
F       -5.203362       2.944309       0.834954
H       -5.051351       1.542461      -0.742330
H       -2.716426       2.133880       0.683446
H       -2.589337       2.739955      -0.716973
6
-27.93844221
C       -4.541235       2.173473      -0.044945
C       -3.234681       2.183722      -0.163664
F       -5.200044       2.917491       0.836727
H       -5.058626       1.558628      -0.742162
H       -2.625830       2.140180       0.851166
H       -2.590590       2.719042      -0.737121
6
-44.8064600075
C       -4.631592       2.190937      -0.097332
C       -3.126466       2.185544      -0.054200
F       -5.195625       2.847042       0.860251
H       -5.108385       1.595990      -0.751873
H       -2.634622       2.177364       0.893991
H       -2.554316       2.695659      -0.850837
6
-56.5444424047
C       -4.511707       2.249198      -0.124500
C       -3.113783       2.211016       0.013202
F       -5.230663       2.774784       0.917380
H       -5.206376       1.599307      -0.807677
H       -2.648854       2.226400       0.938182
H       -2.539624       2.631832      -0.936587
6
-64.9414647125
C       -4.453670       2.265062      -0.130909
C       -3.135109       2.278167      -0.075738
F       -5.236276       2.669785       0.943426
H       -5.217095       1.677567      -0.820243
H       -2.647020       2.297109       1.016926
H       -2.561836       2.504846      -0.933461
6
-78.1756831461
C       -4.504631       2.252146      -0.136348
C       -3.113588       2.347863      -0.089013
F       -5.212816       2.553770       0.953097
H       -5.178479       1.792071      -0.817009
H       -2.669401       2.377004       1.030276
H       -2.572091       2.369682      -0.941003
6
-87.3384549836
C       -4.509574       2.242449      -0.121651
C       -3.158037       2.396003      -0.002466
F       -5.190182       2.453671       0.970394
H       -5.139114       1.894406      -0.835379
H       -2.706719       2.454856       0.974681
H       -2.547380       2.251152      -0.985579
6
-91.0370531543
C       -4.471402       2.246941      -0.088250
C       -3.182352       2.403992      -0.000597
F       -5.194851       2.407105       0.996725
H       -5.130579       1.938392      -0.872786
H       -2.724849       2.498219       0.943296
H       -2.546972       2.197887      -0.978388
6
-96.7248474971
C       -4.460905       2.245601      -0.058750
C       -3.166072       2.396068      -0.045608
F       -5.209581       2.368696       1.034085
H       -5.116112       1.979972      -0.912331
H       -2.734651       2.542066       0.921986
H       -2.563686       2.160133      -0.939383
6
-97.620444422
C       -4.486108       2.237753      -0.061940
C       -3.143110       2.386405      -0.066418
F       -5.213458       2.357239       1.049787
H       -5.101076       1.998499      -0.918966
H       -2.732315       2.560171       0.913496
H       -2.574940       2.152468      -0.915958
6
-97.9190323479
C       -4.501871       2.224884      -0.079061
C       -3.162086       2.368625      -0.057675
F       -5.213096       2.348164       1.064115
H       -5.079945       2.021529      -0.920931
H       -2.717859       2.582633       0.896984
H       -2.576148       2.146702      -0.903432
6
-97.9620543885
C       -4.493592       2.218680      -0.070784
C       -3.201356       2.350332      -0.035559
F       -5.208768       2.342298       1.062670
H       -5.074756       2.036005      -0.934715
H       -2.701383       2.600607       0.880907
H       -2.571152       2.144613      -0.902519
6
-98.1367744452
C       -4.501903       2.214402      -0.058263
C       -3.202631       2.338754      -0.025352
F       -5.206311       2.340296       1.056134
H       -5.075571       2.042160      -0.945296
H       -2.691522       2.609814       0.871713
H       -2.573069       2.147110      -0.898936
6
-98.5124786825
C       -4.515735       2.210259      -0.051112
C       -3.183345       2.330352      -0.024542
F       -5.209201       2.341024       1.051738
H       -5.078211       2.044158      -0.951178
H       -2.684328       2.614446       0.868050
H       -2.580186       2.152297      -0.892956
6
-98.8010207209
C       -4.508000       2.206276      -0.056615
C       -3.169963       2.321698      -0.029207
F       -5.224731       2.345663       1.055212
H       -5.084144       2.042341      -0.951851
H       -2.674501       2.616275       0.872163
H       -2.589667       2.160284      -0.889702
6
-98.9991711703
C       -4.489729       2.204556      -0.063191
C       -3.174492       2.317970      -0.023974
F       -5.238962       2.351204       1.054680
H       -5.089703       2.037917      -0.947354
H       -2.665823       2.614049       0.877816
H       -2.592297       2.166840      -0.897978
6
-99.3421770621
C       -4.487968       2.204039      -0.063628
C       -3.172278       2.319225      -0.012379
F       -5.247044       2.357506       1.042183
H       -5.092424       2.030543      -0.936916
H       -2.658539       2.606806       0.883155
H       -2.592754       2.174417      -0.912416
6
-99.5932531316
C       -4.499437       2.205579      -0.056555
C       -3.162688       2.321994      -0.010138
F       -5.248340       2.362365       1.025652
H       -5.091685       2.022695      -0.927315
H       -2.653815       2.598410       0.888450
H       -2.595041       2.181493      -0.920094
6
-99.6553558564
C       -4.495187       2.210874      -0.048186
C       -3.165518       2.324307      -0.020225
F       -5.252696       2.368896       1.013405
H       -5.089723       2.011050      -0.919812
H       -2.648031       2.586990       0.896699
H       -2.599852       2.190419      -0.921882
6
-99.7155305894
C       -4.483650       2.215570      -0.053918
C       -3.170351       2.330000      -0.022830
F       -5.262107       2.377537       1.014946
H       -5.084616       1.998087      -0.913256
H       -2.645641       2.572266       0.898021
H       -2.604640       2.199076      -0.922962
6
-99.7532811616
C       -4.485843       2.219705      -0.060944
C       -3.164124       2.338748      -0.017909
F       -5.268355       2.386400       1.018509
H       -5.077240       1.984582      -0.908867
H       -2.646419       2.555831       0.893477
H       -2.609024       2.207270      -0.924266
6
-99.8334250492
C       -4.491805       2.223387      -0.055301
C       -3.162408       2.342236      -0.016505
F       -5.266035       2.389641       1.017124
H       -5.074646       1.977592      -0.912447
H       -2.646281       2.549085       0.891938
H       -2.609832       2.210595      -0.924808
6
-99.8595924652
C       -4.493353       2.226893      -0.047528
C       -3.169775       2.342563      -0.018892
F       -5.261616       2.391278       1.016516
H       -5.073155       1.973023      -0.919132
H       -2.643999       2.546575       0.893929
H       -2.609108       2.212204      -0.924893
6
-99.8692481989
C       -4.498019       2.227077      -0.051187
C       -3.177386       2.341715      -0.020120
F       -5.257516       2.393132       1.023932
H       -5.068087       1.971340      -0.924820
H       -2.641326       2.546642       0.895812
H       -2.608672       2.212630      -0.923616
6
-99.9059241273
C       -4.501299       2.225976      -0.055011
C       -3.175764       2.341461      -0.018715
F       -5.256303       2.393411       1.027964
H       -5.066220       1.972068      -0.926354
H       -2.642097       2.547411       0.894394
H       -2.609323       2.212210      -0.922278
6
-99.9390156132
C       -4.498812       2.224794      -0.055429
C       -3.171842       2.340376      -0.016321
F       -5.255558       2.391901       1.029715
H       -5.067919       1.974914      -0.928428
H       -2.646025       2.550022       0.890406
H       -2.610851       2.210529      -0.919943
6
-99.9644127801
C       -4.494006       2.223752      -0.053486
C       -3.171931       2.338201      -0.016676
F       -5.254178       2.389436       1.028898
H       -5.070381       1.978849      -0.929551
H       -2.648946       2.554071       0.889011
H       -2.611563       2.208226      -0.918196
6
-100.00240588
C       -4.493365       2.221809      -0.052759
C       -3.172302       2.335829      -0.018231
F       -5.251976       2.386443       1.026695
H       -5.071664       1.983983      -0.928032
H       -2.650591       2.559128       0.890081
H       -2.611108       2.205345      -0.917755
6
-100.028590316
C       -4.496137       2.219380      -0.054550
C       -3.171626       2.334366      -0.018495
F       -5.250343       2.383828       1.025386
H       -5.071907       1.988879      -0.925120
H       -2.651500       2.563662       0.891752
H       -2.609493       2.202420      -0.918972
6
-100.024621382
C       -4.494173       2.217649      -0.056307
C       -3.172948       2.333654      -0.017414
F       -5.251021       2.381263       1.026799
H       -5.074159       1.993117      -0.924439
H       -2.652587       2.568012       0.893139
H       -2.606119       2.198841      -0.921778
6
-100.018184575
C       -4.493452       2.216360      -0.055904
C       -3.170890       2.333199      -0.017867
F       -5.251660       2.378200       1.028096
H       -5.077620       1.997318      -0.925223
H       -2.654400       2.572520       0.894029
H       -2.602984       2.194939      -0.923131
