6
0.0
C       -4.510640       2.165127      -0.036369
C       -3.179892       2.166804      -0.022728
F       -5.203362       2.944309       0.834954
H       -5.051351       1.542461      -0.742330
H       -2.716426       2.133880       0.683446
H       -2.589337       2.739955      -0.716973
6
-43.2588320004
C       -4.557279       2.169992      -0.059571
C       -3.180976       2.174916      -0.066715
F       -5.230805       2.920602       0.819982
H       -5.110127       1.559261      -0.755078
H       -2.576910       2.124620       0.835240
H       -2.594910       2.743147      -0.773859
6
-47.0459090652
C       -4.570978       2.175730      -0.060011
C       -3.166470       2.188179      -0.078000
F       -5.233756       2.883169       0.816687
H       -5.132485       1.576590      -0.740113
H       -2.590161       2.144808       0.843938
H       -2.557156       2.724061      -0.782501
6
-52.4443042733
C       -4.559548       2.180204      -0.066746
C       -3.162195       2.202527      -0.091408
F       -5.225320       2.849830       0.836355
H       -5.140163       1.590436      -0.734358
H       -2.639895       2.175880       0.850953
H       -2.523885       2.693659      -0.794796
6
-59.5069798294
C       -4.526222       2.183416      -0.083119
C       -3.168839       2.215108      -0.103975
F       -5.198404       2.818826       0.875471
H       -5.139217       1.601318      -0.742001
H       -2.715881       2.219777       0.867038
H       -2.502443       2.654090      -0.813414
6
-65.8808767412
C       -4.510729       2.186874      -0.101593
C       -3.164628       2.223235      -0.108507
F       -5.167747       2.777796       0.901062
H       -5.155151       1.619369      -0.750830
H       -2.767220       2.268786       0.894288
H       -2.485532       2.616476      -0.834419
6
-72.9698069776
C       -4.510648       2.193785      -0.121275
C       -3.145377       2.228845      -0.103695
F       -5.142977       2.718806       0.918334
H       -5.181904       1.653054      -0.758337
H       -2.801390       2.331319       0.922827
H       -2.468709       2.566728      -0.857854
6
-78.4463677384
C       -4.499646       2.205524      -0.133063
C       -3.136553       2.228548      -0.088551
F       -5.135236       2.673713       0.934933
H       -5.179237       1.689354      -0.769468
H       -2.822124       2.382877       0.932272
H       -2.478210       2.512521      -0.876123
6
-83.5557641906
C       -4.478456       2.224516      -0.137581
C       -3.136397       2.227003      -0.067392
F       -5.144113       2.633674       0.955671
H       -5.158474       1.728968      -0.789197
H       -2.829198       2.431774       0.934144
H       -2.504367       2.446601      -0.895644
6
-87.6501409957
C       -4.471554       2.246631      -0.133801
C       -3.132576       2.228655      -0.049078
F       -5.169620       2.593691       0.967896
H       -5.147480       1.767474      -0.810225
H       -2.805166       2.473875       0.938882
H       -2.524609       2.382210      -0.913674
6
-90.9454910529
C       -4.476960       2.267582      -0.125796
C       -3.131092       2.234376      -0.035583
F       -5.194030       2.552606       0.970376
H       -5.140959       1.804819      -0.827022
H       -2.768107       2.511852       0.941474
H       -2.539858       2.321301      -0.923448
6
-93.4860797147
C       -4.478805       2.284242      -0.117159
C       -3.141777       2.243062      -0.026218
F       -5.208088       2.519926       0.974442
H       -5.122644       1.835835      -0.841089
H       -2.743703       2.546024       0.930947
H       -2.555988       2.263448      -0.920923
6
-95.2667640079
C       -4.481118       2.295264      -0.109270
C       -3.152753       2.252805      -0.020175
F       -5.225045       2.501043       0.986725
H       -5.103191       1.855616      -0.856194
H       -2.725826       2.575216       0.909921
H       -2.563072       2.212592      -0.911007
6
-96.3181538447
C       -4.490848       2.300481      -0.101167
C       -3.156414       2.261370      -0.015988
F       -5.242719       2.489671       0.995681
H       -5.096063       1.867849      -0.870125
H       -2.703231       2.596335       0.893981
H       -2.561732       2.176829      -0.902382
6
-97.0913150873
C       -4.498056       2.302081      -0.091511
C       -3.164404       2.268937      -0.011636
F       -5.250269       2.479562       0.996608
H       -5.087007       1.881406      -0.882126
H       -2.682083       2.612041       0.884427
H       -2.569186       2.148509      -0.895762
6
-97.5715960195
C       -4.499787       2.300359      -0.083355
C       -3.171752       2.273761      -0.007666
F       -5.256137       2.475615       0.995296
H       -5.074530       1.893644      -0.890129
H       -2.666608       2.619676       0.877692
H       -2.582192       2.129481      -0.891838
6
-98.0967292687
C       -4.503313       2.295320      -0.073412
C       -3.174600       2.279569      -0.001943
F       -5.272259       2.475359       0.996467
H       -5.060530       1.908221      -0.900533
H       -2.644339       2.627103       0.866913
H       -2.595966       2.106965      -0.887492
6
-98.4406849374
C       -4.506224       2.288376      -0.066432
C       -3.173480       2.284661       0.003168
F       -5.283899       2.477021       0.998431
H       -5.053935       1.917716      -0.909269
H       -2.629794       2.632483       0.859054
H       -2.603674       2.092279      -0.884953
6
-98.8059331421
C       -4.505879       2.276994      -0.059701
C       -3.176057       2.291133       0.008388
F       -5.285485       2.477776       0.998353
H       -5.046881       1.929018      -0.918533
H       -2.621354       2.639357       0.854036
H       -2.615350       2.078259      -0.882543
6
-99.0807811081
C       -4.504862       2.264309      -0.056461
C       -3.179099       2.296369       0.009415
F       -5.280518       2.477245       0.997203
H       -5.044511       1.938621      -0.923713
H       -2.619487       2.645978       0.854547
H       -2.622529       2.070014      -0.880991
6
-99.3642815879
C       -4.505948       2.246246      -0.054661
C       -3.178184       2.302683       0.006765
F       -5.277664       2.477815       0.998701
H       -5.048446       1.947894      -0.927766
H       -2.619809       2.654622       0.855859
H       -2.620956       2.063276      -0.878897
6
-99.5521233412
C       -4.504978       2.229722      -0.053170
C       -3.175924       2.308288       0.001745
F       -5.275861       2.480108       1.002427
H       -5.054472       1.952322      -0.929017
H       -2.628106       2.660977       0.854678
H       -2.611666       2.061119      -0.876662
6
-99.6608224326
C       -4.500449       2.215929      -0.051089
C       -3.176642       2.313131      -0.004127
F       -5.268480       2.481141       1.003130
H       -5.059540       1.954728      -0.927067
H       -2.643360       2.664168       0.854654
H       -2.602535       2.063440      -0.875501
6
-99.7092191673
C       -4.499209       2.207174      -0.050008
C       -3.175023       2.316331      -0.009619
F       -5.264181       2.480441       1.001199
H       -5.066707       1.956253      -0.923491
H       -2.651888       2.664366       0.858658
H       -2.593998       2.067972      -0.876739
6
-99.734184002
C       -4.498368       2.202735      -0.050448
C       -3.172737       2.318253      -0.013625
F       -5.263427       2.480854       1.000699
H       -5.071343       1.956284      -0.920915
H       -2.656062       2.662745       0.863065
H       -2.589070       2.071664      -0.878777
6
-99.7597902703
C       -4.495172       2.199309      -0.051506
C       -3.171595       2.320658      -0.016912
F       -5.260562       2.482303       1.000598
H       -5.073772       1.954884      -0.918473
H       -2.663069       2.659382       0.867406
H       -2.586836       2.076001      -0.881114
6
-99.7820894895
C       -4.492547       2.197495      -0.052475
C       -3.170410       2.323495      -0.018172
F       -5.256591       2.483643       0.999845
H       -5.075802       1.952380      -0.916666
H       -2.669579       2.655181       0.870643
H       -2.586077       2.080342      -0.883174
6
-99.8017450531
C       -4.491898       2.196930      -0.053584
C       -3.168101       2.326451      -0.018671
F       -5.254215       2.484763       0.998718
H       -5.078631       1.949527      -0.915289
H       -2.672664       2.650347       0.874489
H       -2.585496       2.084519      -0.885662
6
-99.8229473432
C       -4.490891       2.197737      -0.054946
C       -3.166900       2.329027      -0.019435
F       -5.252813       2.486207       0.997832
H       -5.079445       1.946732      -0.914161
H       -2.673903       2.644704       0.879332
H       -2.587055       2.088129      -0.888622
6
-99.8465437164
C       -4.489167       2.199976      -0.055996
C       -3.167056       2.331256      -0.020480
F       -5.252429       2.488133       0.997258
H       -5.077844       1.943694      -0.913021
H       -2.674499       2.638308       0.883511
H       -2.590011       2.091169      -0.891272
6
-99.8754445798
C       -4.488847       2.203583      -0.056233
C       -3.166538       2.333814      -0.021342
F       -5.253989       2.490273       0.996491
H       -5.076521       1.939506      -0.911578
H       -2.673794       2.630948       0.885799
H       -2.591318       2.094413      -0.893137
6
-99.9044222546
C       -4.490228       2.207871      -0.055817
C       -3.165850       2.336446      -0.021693
F       -5.255772       2.492029       0.995469
H       -5.076218       1.934456      -0.910173
H       -2.672501       2.624043       0.886016
H       -2.590438       2.097690      -0.893801
6
-99.9278325851
C       -4.490985       2.212027      -0.055968
C       -3.167440       2.338287      -0.022062
F       -5.255443       2.493616       0.995214
H       -5.074672       1.929628      -0.909492
H       -2.672051       2.618861       0.885997
H       -2.590415       2.100117      -0.893688
6
-99.9469826293
C       -4.492165       2.215707      -0.057098
C       -3.169405       2.339222      -0.022678
F       -5.255624       2.495312       0.996258
H       -5.072996       1.925431      -0.909610
H       -2.670246       2.615489       0.886295
H       -2.590570       2.101375      -0.893167
6
-99.9589976819
C       -4.494344       2.218577      -0.058151
C       -3.170012       2.339563      -0.022712
F       -5.257001       2.496329       0.997184
H       -5.072560       1.922571      -0.909926
H       -2.667035       2.613805       0.885808
H       -2.590054       2.101691      -0.892203
6
-99.9693866833
C       -4.495731       2.221643      -0.058606
C       -3.171259       2.339600      -0.021798
F       -5.257382       2.496612       0.997204
H       -5.071384       1.920521      -0.910175
H       -2.664532       2.612646       0.884255
H       -2.590717       2.101514      -0.890879
6
-99.9766855836
C       -4.495963       2.224257      -0.058399
C       -3.172463       2.339186      -0.020510
F       -5.258027       2.496357       0.996830
H       -5.069788       1.919848      -0.910470
H       -2.662559       2.612130       0.882651
H       -2.592206       2.100758      -0.890102
6
-99.9846058523
C       -4.496767       2.227307      -0.058122
C       -3.172677       2.338156      -0.019024
F       -5.261056       2.495842       0.996611
H       -5.068563       1.919896      -0.910923
H       -2.658368       2.612019       0.881137
H       -2.593576       2.099316      -0.889679
6
-99.9902629222
C       -4.497553       2.229372      -0.058255
C       -3.172345       2.336807      -0.018138
F       -5.263873       2.495137       0.996434
H       -5.068014       1.920659      -0.911104
H       -2.654532       2.612518       0.880633
H       -2.594689       2.098043      -0.889570
6
-99.9965081018
C       -4.497526       2.231341      -0.058597
C       -3.172736       2.334911      -0.017051
F       -5.264928       2.493932       0.995944
H       -5.067096       1.921809      -0.911122
H       -2.652185       2.613730       0.880096
H       -2.596536       2.096813      -0.889270
6
-100.00315793
C       -4.497208       2.232723      -0.058970
C       -3.173090       2.332889      -0.015757
F       -5.264311       2.492554       0.995705
H       -5.066973       1.922577      -0.911260
H       -2.652120       2.615784       0.879002
H       -2.597305       2.096010      -0.888720
6
-100.009880064
C       -4.497551       2.233535      -0.059584
C       -3.172337       2.330443      -0.014588
F       -5.263945       2.491169       0.996322
H       -5.068496       1.922989      -0.911664
H       -2.652766       2.618922       0.877692
H       -2.595911       2.095478      -0.888178
6
-100.015124609
C       -4.497585       2.233554      -0.060407
C       -3.171803       2.327986      -0.014455
F       -5.263312       2.490149       0.997242
H       -5.069830       1.923573      -0.911850
H       -2.654075       2.621912       0.877546
H       -2.594400       2.095361      -0.888075
6
-100.019829294
C       -4.496897       2.233086      -0.061149
C       -3.171921       2.325201      -0.014867
F       -5.261508       2.489021       0.997730
H       -5.070517       1.924662      -0.911586
H       -2.656630       2.624885       0.878069
H       -2.593534       2.095681      -0.888197
6
-100.023085814
C       -4.496634       2.232316      -0.061173
C       -3.171334       2.323064      -0.015105
F       -5.260357       2.488189       0.997743
H       -5.071504       1.925594      -0.911199
H       -2.658951       2.627005       0.878143
H       -2.592227       2.096368      -0.888409
6
-100.025705253
C       -4.496419       2.231356      -0.060777
C       -3.170372       2.321433      -0.015053
F       -5.259967       2.487942       0.997930
H       -5.072370       1.926233      -0.911141
H       -2.660998       2.628475       0.877876
H       -2.590880       2.097098      -0.888834
6
-100.027902403
C       -4.495628       2.230177      -0.060432
C       -3.169983       2.319908      -0.014948
F       -5.259257       2.488139       0.998221
H       -5.072327       1.926967      -0.911345
H       -2.663112       2.629539       0.878087
H       -2.590699       2.097806      -0.889583
