6
0.0
C       -4.510640       2.165127      -0.036369
C       -3.179892       2.166804      -0.022728
F       -5.203362       2.944309       0.834954
H       -5.051351       1.542461      -0.742330
H       -2.716426       2.133880       0.683446
H       -2.589337       2.739955      -0.716973
6
-43.2588320004
C       -4.557279       2.169992      -0.059571
C       -3.180976       2.174916      -0.066715
F       -5.230805       2.920602       0.819982
H       -5.110127       1.559261      -0.755078
H       -2.576910       2.124620       0.835240
H       -2.594910       2.743147      -0.773859
6
-47.0942838381
C       -4.570253       2.175709      -0.059578
C       -3.166306       2.188190      -0.077254
F       -5.233300       2.883206       0.816939
H       -5.131619       1.576458      -0.739714
H       -2.592907       2.145215       0.841089
H       -2.556620       2.723759      -0.781482
6
-55.8967355913
C       -4.558377       2.185145      -0.072689
C       -3.154496       2.217020      -0.107448
F       -5.219289       2.813456       0.847052
H       -5.155529       1.605951      -0.724887
H       -2.674069       2.203975       0.863367
H       -2.489246       2.666988      -0.805396
6
-63.4828975853
C       -4.537813       2.191161      -0.091223
C       -3.149101       2.237357      -0.128170
F       -5.185715       2.754583       0.880069
H       -5.175309       1.628123      -0.721052
H       -2.760330       2.265534       0.883476
H       -2.442739       2.615779      -0.823100
6
-69.9068597335
C       -4.517090       2.196379      -0.112649
C       -3.143115       2.249682      -0.138480
F       -5.150168       2.701274       0.912480
H       -5.190117       1.651410      -0.722941
H       -2.837836       2.329175       0.898646
H       -2.412681       2.564617      -0.837056
6
-75.3016151492
C       -4.497909       2.204589      -0.131682
C       -3.135875       2.255745      -0.136147
F       -5.121032       2.649241       0.940568
H       -5.200918       1.679396      -0.731207
H       -2.897088       2.393163       0.910671
H       -2.398184       2.510402      -0.852204
6
-80.0048580835
C       -4.481083       2.217430      -0.146293
C       -3.126685       2.257447      -0.122702
F       -5.109228       2.598425       0.965018
H       -5.203930       1.715264      -0.745533
H       -2.929890       2.455242       0.920161
H       -2.400190       2.448727      -0.870651
6
-84.1261414081
C       -4.464913       2.235723      -0.154411
C       -3.120224       2.257610      -0.099354
F       -5.109742       2.547605       0.982107
H       -5.197747       1.758904      -0.766242
H       -2.935338       2.513184       0.929792
H       -2.423041       2.379510      -0.891893
6
-87.6335400244
C       -4.452973       2.258971      -0.155414
C       -3.114244       2.257697      -0.069142
F       -5.132607       2.502376       0.995090
H       -5.181710       1.807648      -0.794917
H       -2.904400       2.563765       0.937971
H       -2.465073       2.302079      -0.913588
6
-90.6603918654
C       -4.443955       2.285932      -0.144261
C       -3.120567       2.259308      -0.032444
F       -5.166684       2.467776       0.994944
H       -5.146682       1.858897      -0.831189
H       -2.834489       2.598096       0.943588
H       -2.538629       2.222527      -0.930638
6
-93.3943860115
C       -4.455915       2.303349      -0.122327
C       -3.125280       2.260822      -0.003405
F       -5.229001       2.470960       0.993168
H       -5.111355       1.884922      -0.866200
H       -2.733256       2.598682       0.934183
H       -2.596199       2.173801      -0.935419
6
-96.6201411401
C       -4.484688       2.307558      -0.080580
C       -3.161774       2.272859      -0.005369
F       -5.255623       2.467359       0.968225
H       -5.070360       1.904653      -0.868801
H       -2.672424       2.595537       0.891979
H       -2.606138       2.144571      -0.905454
6
-97.6691919938
C       -4.497394       2.304762      -0.075051
C       -3.165849       2.277799      -0.005972
F       -5.280465       2.478482       0.989330
H       -5.065533       1.899464      -0.887249
H       -2.649477       2.605668       0.876245
H       -2.592288       2.126361      -0.897303
6
-98.0407757981
C       -4.503166       2.296476      -0.073517
C       -3.176967       2.281367      -0.005758
F       -5.272863       2.487692       0.997085
H       -5.061414       1.892969      -0.897416
H       -2.647726       2.609492       0.869819
H       -2.588871       2.124540      -0.890212
6
-98.4078595115
C       -4.509880       2.284092      -0.079183
C       -3.179598       2.288491      -0.007944
F       -5.256425       2.484192       1.007494
H       -5.068698       1.894261      -0.905945
H       -2.656905       2.629580       0.865966
H       -2.579500       2.111919      -0.880390
