6
0.0
C       -4.510640       2.165127      -0.036369
C       -3.179892       2.166804      -0.022728
F       -5.203362       2.944309       0.834954
H       -5.051351       1.542461      -0.742330
H       -2.716426       2.133880       0.683446
H       -2.589337       2.739955      -0.716973
6
-27.93844221
C       -4.541235       2.173473      -0.044945
C       -3.234681       2.183722      -0.163664
F       -5.200044       2.917491       0.836727
H       -5.058626       1.558628      -0.742162
H       -2.625830       2.140180       0.851166
H       -2.590590       2.719042      -0.737121
6
-34.0519478276
C       -4.605043       2.184726      -0.086007
C       -3.117674       2.177772      -0.007345
F       -5.197732       2.869057       0.856088
H       -5.098014       1.583452      -0.750553
H       -2.673578       2.169232       0.813391
H       -2.558965       2.708298      -0.825574
6
-39.164924265
C       -4.500998       2.210779      -0.074021
C       -3.213970       2.199408      -0.144031
F       -5.217959       2.851008       0.873798
H       -5.128461       1.576417      -0.773943
H       -2.619588       2.183106       0.936874
H       -2.570031       2.671819      -0.818677
