6
atoms
C         -0.05443        0.58058        0.07756
H         -0.81079        1.30066        0.36575
H          0.65554        0.99235       -0.64203
C         -0.15166       -0.74266        0.45697
H          0.70266       -1.40914        0.45535
H         -0.34130       -0.72177       -0.71359
