20

O     -2.95509207    1.63479802   -0.08690199
C     -2.24102157    1.32908745    0.86727675
C     -1.30944204    0.13285018    0.85471924
C     -0.01180215    0.54145210    0.13047237
C      1.20327587   -0.34339286    0.52572256
C      2.24294946   -0.50518637   -0.59156474
O      1.69351735   -1.25169043   -1.68029987
H      3.10633558   -1.06933787   -0.22564964
H      2.58912974    0.46315078   -0.96572033
H     -2.18026867    1.97075434    1.76221573
O     -1.93575199   -0.96125275    0.18464692
H     -1.13344099   -0.14961974    1.89744278
H     -2.04725950   -0.68619051   -0.74589619
O      0.79289200   -1.64741925    0.94466740
H      1.68136340    0.11415124    1.39947507
H      0.47479209   -2.10587816    0.14057075
O     -0.24304913    0.49775692   -1.29690536
H      0.25832888    1.58035251    0.35942295
H     -0.88190256    1.20948253   -1.51034520
H      0.89644628   -0.75386814   -1.96334921