20

O      0.26116053    3.20185169    1.08873909
C      1.11108410    2.45650521    0.60916212
C      0.79384546    1.17768667   -0.15122905
C     -0.06067963    0.23872448    0.71017178
C     -0.37159438   -1.13704865    0.07584436
C     -1.22157903   -1.14462221   -1.19987687
O     -0.73819008   -0.26034986   -2.18986597
H     -2.26244463   -0.88573624   -0.98002828
H     -1.23577843   -2.16324046   -1.60739158
H      2.18379547    2.71018478    0.68036828
O      2.02784032    0.53699712   -0.49632205
H      0.29909916    1.49137604   -1.07224856
H      2.33243452    0.10051317    0.32428781
O     -1.00531800   -1.95193401    1.08986700
H      0.58101301   -1.63646558   -0.13596330
H     -1.97142200   -1.88309442    0.98597345
O      0.71404182   -0.05335726    1.90613202
H     -0.98226890    0.72786560    1.04649418
H      0.22872565   -0.78135754    2.34839876
H     -0.68376493   -0.74449851   -3.03251319
20

O     -0.91957669   -0.78344182    0.10132587
C      0.00935465    0.00796972   -0.00103105
C      0.97308691   -0.50323851    3.50805763
C      0.99759418   -1.09079980    4.92122130
C      2.45251526   -0.85612329    5.29263474
C      3.14687658   -1.18276727    3.97461700
O      2.21323453   -0.88389851    2.90967338
H      3.38006035   -2.24990420    3.90309359
H      4.05731488   -0.59844089    3.81399307
H     -0.15040337    1.07776706   -0.21020296
O      0.95258788    0.92218261    3.56634320
H      0.12033745   -0.85413263    2.91898646
H      0.72182998    1.20110135    2.66255314
O      2.66468736    0.51841636    5.65361445
H      2.79810855   -1.46973570    6.12825452
H      2.35123846    1.06270283    4.89847921
O      0.08562420   -0.47912479    5.82162049
H      0.79419442   -2.16728389    4.87975765
H      0.42988383    0.42499747    5.96612422
H      1.06062542   -0.30229496    0.10990814
