20

O     -3.15904233    0.27939807   -0.77094610
C     -2.00668134   -0.10966786   -0.80583416
C     -0.36592544   -0.80893388    1.80177270
C      0.79401379   -0.33254547    0.93417685
C      0.41073877    0.06575762   -0.51532910
C      1.38174491    1.10574113   -1.09460240
O      1.13336041    1.28913072   -2.49158900
H      2.42081736    0.78144631   -0.98345351
H      1.26047731    2.08346495   -0.61512866
H     -0.88268356   -1.66646391    1.36537752
O     -1.71808763   -1.39643794   -1.07193904
H     -0.00397155   -1.10222543    2.79334838
H     -2.60323797   -1.79276789   -1.20794963
O     -0.91548208    0.65829037   -0.57855068
H      0.44632145   -0.81889860   -1.16172203
H     -1.08544854    0.00023534    1.97329245
O      1.40818071    0.76547280    1.61844375
H      1.55286085   -1.12185075    0.87525997
H      1.69092378    0.44577350    2.49362183
H      0.24112110    1.67508094   -2.55824917