20

O     -1.95696085   -1.47519685   -1.10564315
C     -1.50006329   -0.37935682   -1.37355408
C     -0.06244069   -0.05511435   -1.65395432
C      0.87152077   -0.05761850   -0.44124291
C      0.28480591   -0.44281917    0.93542657
C     -0.51453481    0.67580875    1.60684866
O      0.34567742    1.78533679    1.87345289
H     -0.90543213    0.33669052    2.57194897
H     -1.35033258    1.02701465    1.00069392
H      0.27692141   -0.76604481   -2.41853991
O     -2.29540649    0.70472325   -1.41903793
H     -0.01882025    0.92638236   -2.14258986
H     -3.19551618    0.36460124   -1.22767104
O      1.39720272   -0.73212048    1.81464280
H     -0.30308551   -1.36329280    0.87302554
H      2.00516425   -1.26128930    1.25434107
O      1.94777757   -0.99256820   -0.70357858
H      1.36163462    0.92056291   -0.36226630
H      2.49450081   -0.60446410   -1.41161934
H      1.11738728    1.38876491    2.32931701
20

O     -0.27054346   -2.98627248   -0.21025070
C      0.32042989   -2.08257812    0.34892514
C     -0.26348495   -1.11824051    1.33629196
C     -0.77348993    0.19923384    0.75162989
C     -0.95681135    0.27950598   -0.78080289
C      1.01283735    1.46221724   -1.39346582
O      1.51421199    2.65497667   -0.83558008
H      1.29251926    1.40555495   -2.44876670
H      1.46164947    0.62280959   -0.85611044
H     -1.04777926   -1.64669727    1.89086092
O      1.61605404   -1.83694808    0.07966078
H      0.50814218   -0.90121255    2.08752606
H      1.87030175   -2.54427253   -0.55239192
O     -0.39980672    1.50667121   -1.28126089
H     -0.51655675   -0.54566337   -1.34519620
H     -2.02324824    0.30558359   -1.03226969
O     -2.04588412    0.49480858    1.35905672
H     -0.10658175    1.00522525    1.07990622
H     -1.90194080    0.63018563    2.31151768
H      0.70998140    3.09511238   -0.50928005
