20

O     -0.45648023   -2.32437206    0.51107739
C     -1.07413027   -1.47093785    1.15071079
C     -0.56515132   -0.05879660    1.43053667
C     -0.74938334    0.89401880    0.22887074
C      0.33598113    0.92912693   -0.87947942
C      0.84149374   -0.42196752   -1.40049968
O      1.62551411   -1.08190909   -0.40772036
H      1.51092247   -0.25918291   -2.25189597
H      0.02083724   -1.06427810   -1.73408348
H     -2.06172958   -1.70516407    1.58444354
O      0.74992291   -0.05624545    1.96054984
H     -1.21866614    0.30071005    2.23640591
H      1.35078149   -0.35152557    1.24295010
O      1.43664310    1.73527422   -0.43547329
H     -0.08927779    1.45570988   -1.74257807
H      2.26244217    1.30837776   -0.73001902
O     -2.04833335    0.69441203   -0.35004067
H     -0.76552030    1.90358684    0.66352826
H     -2.25323212    1.49554216   -0.86812490
H      1.14736606   -1.92237947   -0.20915840
20

O      0.12441684    0.90815822    1.46648252
C     -0.01882790    0.30963608    0.39577586
C     -0.93924720    0.85382870   -0.70552907
C     -1.98636945    1.80590851   -0.10938306
C      0.65522165   -1.04153184    0.12164072
C      1.92052618   -1.23447029    0.96035072
O      3.00933030   -0.47895775    0.42668376
H      2.22595787   -2.28557971    0.92190049
H      1.77916973   -0.96057850    2.00984086
H     -1.52037140    2.72365992    0.26477339
O     -1.59904295   -0.18352895   -1.42796556
H     -0.32134082    1.40948737   -1.41988017
H     -0.90466314   -0.64527075   -1.93728188
O      0.99094215   -1.20962635   -1.26157006
H     -0.08436165   -1.80610237    0.38678806
H      1.27586890   -2.13752721   -1.37008979
O     -2.71137904    1.21094424    0.97037775
H     -2.72225264    2.07977483   -0.87212197
H     -2.08994302    1.16464316    1.72331360
H      2.91636560   -0.48286728   -0.54410617
