20

O     -0.45648023   -2.32437206    0.51107739
C     -1.07413027   -1.47093785    1.15071079
C     -0.56515132   -0.05879660    1.43053667
C     -0.74938334    0.89401880    0.22887074
C      0.33598113    0.92912693   -0.87947942
C      0.84149374   -0.42196752   -1.40049968
O      1.62551411   -1.08190909   -0.40772036
H      1.51092247   -0.25918291   -2.25189597
H      0.02083724   -1.06427810   -1.73408348
H     -2.06172958   -1.70516407    1.58444354
O      0.74992291   -0.05624545    1.96054984
H     -1.21866614    0.30071005    2.23640591
H      1.35078149   -0.35152557    1.24295010
O      1.43664310    1.73527422   -0.43547329
H     -0.08927779    1.45570988   -1.74257807
H      2.26244217    1.30837776   -0.73001902
O     -2.04833335    0.69441203   -0.35004067
H     -0.76552030    1.90358684    0.66352826
H     -2.25323212    1.49554216   -0.86812490
H      1.14736606   -1.92237947   -0.20915840