20

O     -1.19583591    1.64295394    2.19686399
C     -1.62454428    0.93926772    1.28560691
C     -0.82863937   -0.11645477    0.42638550
C      0.12225307    0.52106574   -0.64733657
C      1.17051623   -0.56314658   -0.27102578
C      0.45528388   -0.70277132    1.08581927
O      7.00950435    0.37070671   -0.08404125
H      0.36581457   -1.73054297    1.45029502
H      0.88563581   -0.08812742    1.88490490
H     -2.68430357    1.03563302    0.99008555
O     -1.72254311   -1.12392175   -0.13751281
H      6.13368499   -0.02233332   -0.21602982
H     -1.81187811   -0.85382594   -1.07484505
O      2.54184703   -0.12696042   -0.23109484
H      1.08079640   -1.47233340   -0.88037758
H      2.88112082   -0.25793746   -1.13342585
O     -0.38806800    0.47471485   -2.00290772
H      0.43825277    1.54209301   -0.39778977
H      0.31429177    0.88029375   -2.54364519
H      7.53328154   -0.34837339    0.30007108
20

O      0.04967724    0.61256427    3.19662503
C     -0.46866461    1.16595763    2.22993094
C     -0.39348321    0.68008313    0.76936433
C      0.25900031   -0.87527493   -1.83876613
C      0.72223369   -1.24999304   -0.64434316
C      0.40961763   -0.64324263    0.70625516
O      7.88361921    0.25755964   -0.18146835
H     -0.11826736   -1.41028608    1.28799971
H      1.38050318   -0.48136983    1.19395828
H     -1.03619336    2.10249927    2.36850821
O     -1.69028899    0.48843978    0.24012423
H      7.37646794    0.38851734    0.63376699
H     -2.09142744    1.37290896    0.21569989
O      0.21618612    1.71755334    0.01599727
H      1.40707506   -2.09711260   -0.61572666
H      1.00910791    1.34149705   -0.40564264
O      0.65174980   -1.50972557   -2.98400742
H     -0.44309332   -0.06897186   -2.01035959
H      0.13626736   -1.14552688   -3.72561748
H      7.66214050   -0.64607698   -0.45229864
