20

O     -2.73156967    1.17503823   -1.98647385
C     -1.99364679    0.86477901   -1.05036897
C     -1.13149751   -0.38459312   -1.08547763
C      0.25659365   -0.13894079   -0.44862130
C      0.21300792   -0.23892002    1.07931524
C      1.52598846    0.15596715    1.74771304
O      1.50979739   -0.24507840    3.11461720
H      1.67620385    1.24035075    1.71177507
H      2.38516192   -0.32412246    1.27095533
H     -1.99464492    1.44140943   -0.11133924
O     -0.95027705   -0.80721599   -2.45168693
H     -1.65818141   -1.19374684   -0.56938968
H     -1.71594645   -0.44246960   -2.94533882
O      1.17598825   -1.10026770   -0.95353400
H     -0.04092561   -1.26451448    1.37667002
H      0.80201330   -1.36881377   -1.82127056
O      0.77689427    1.11447717   -0.84304957
H     -0.57514917    0.40539667    1.48749651
H      1.70181187    0.90803681   -1.07597274
H      0.76837774    0.20322797    3.55398090