20

O     -2.44883032   -1.38226478    0.32840631
C     -1.92661562   -0.27709345    0.48388167
C     -0.51132188   -0.11002032    1.02052591
C      0.31580189    0.53790725   -0.05714752
C      1.28412345   -0.06170339   -0.75799263
C      8.03386835    0.18630886    0.31146553
O      7.71687183    0.04006779   -1.06055096
H      8.98105763   -0.31586995    0.52305500
H      8.12825988    1.24984641    0.54298044
H     -2.47791110    0.65451996    0.27011839
O      0.03494034   -1.37512928    1.39124351
H     -0.54808114    0.51755229    1.91624316
H     -0.64408198   -2.03755926    1.14873726
O      1.98615361    0.61431327   -1.72293944
H      1.58091644   -1.09495136   -0.62645183
H      2.63592929   -0.00775176   -2.10131987
O      0.03502632    1.87525740   -0.30441955
H      7.23565706   -0.24715122    0.91899519
H      0.68395071    2.14692344   -0.98888536
H      7.63955412   -0.91320189   -1.23594520