20

O      2.76686367   -2.12811030   -1.21731857
C      2.37768128   -1.12203957   -0.63009853
C      0.90888750   -0.73904516   -0.56746193
C      0.52506901   -0.25921796    0.84852527
C     -0.35576190    0.99886688    0.80469664
C     -1.73756261    0.76521928    0.17603232
O     -2.21427741    2.00964430   -0.35060653
H     -2.44864257    0.40104750    0.92452949
H     -1.70263096    0.05059203   -0.64941979
H      3.09030421   -0.39485945   -0.20304516
O      0.07826923   -1.85070799   -0.93008993
H      0.77832565    0.04545745   -1.32002811
H      0.59317549   -2.35491510   -1.59574432
O      0.33683416    2.02723626    0.07947178
H     -0.50692955    1.37555932    1.82384292
H     -0.37818079    2.64385575   -0.19384642
O     -0.13429456   -1.30397268    1.57561906
H      1.43158197    0.00196630    1.40793864
H     -0.40614923   -1.96365492    0.90028915
H     -3.00256257    1.79707804   -0.88328593
20

O     -2.82768517   -1.33934279    0.26789270
C     -2.09946366   -0.45322013    0.70144809
C     -0.90375918   -0.02052269   -0.06702950
C     -0.35420309    1.38194949    0.09021538
C      0.40442720    0.20890306    0.64792741
C      1.69709996   -0.24032638    0.06922630
O      1.94445176   -1.56488254    0.52212244
H      2.51048269    0.40044472    0.42385718
H      1.70269772   -0.23692020   -1.02503304
H     -2.29373694    0.05138358    1.66230742
O     -0.84056615   -0.53376958   -1.42329520
H     -0.80587752   -3.07307560    1.17092248
H     -1.39832261   -1.33750534   -1.47718997
O     -0.33884511   -2.81113551    1.97852951
H      0.41937500    0.11135027    1.72848719
H      0.10048359   -3.62447280    2.26910436
O      0.16899306    1.97976544   -1.11166000
H     -0.83071047    2.04726732    0.80240802
H     -0.04836942    1.41179116   -1.87872888
H      2.74928928   -1.86636542    0.06704445
