20

O      1.62696985    2.18450535    1.85874175
C      1.66778037    1.52206591    0.82245058
C      0.63665744    1.63672506   -0.28797824
C     -0.46800468    0.56828279   -0.20446376
C      0.03126427   -0.88928045   -0.08571746
C     -1.13380330   -1.88967793   -0.14617260
O     -1.78030046   -1.84953122   -1.40928157
H     -1.86332071   -1.68816877    0.64646230
H     -0.76331581   -2.90795353    0.01607332
H      2.45489276    0.76386487    0.67100522
O      1.29584245    1.57465370   -1.55197083
H      0.17764803    2.62910908   -0.19562775
H      1.54516014    2.48813816   -1.78402503
O      0.71336472   -1.05779370    1.16544184
H      0.73953343   -1.09706609   -0.89626709
H      1.03089847   -1.97862047    1.20242899
O     -1.35143685    0.87580121    0.88691274
H     -1.06302658    0.64934640   -1.12260790
H     -0.84127236    0.72548957    1.70720333
H     -2.65553116   -2.25988995   -1.29260785
20

O     -2.07862097   -0.96431437   -2.07540679
C     -1.26397714   -0.65011842   -1.22170989
C     -1.58414866   -0.41201443    0.24345098
C     -0.30065767    0.24186503    0.72998988
C      0.73836023   -0.37530109   -0.19342703
C      2.02202875    0.43493021   -0.34882674
O      2.60038563    0.74762316    0.91039126
H      1.85376807    1.36218772   -0.90822105
H      2.75141582   -0.14152741   -0.92827614
H      2.13216261   -3.67300143   -2.44658571
O     -1.83561273   -1.63034096    0.92560555
H     -2.44241720    0.26018357    0.33774551
H     -2.61066878   -2.03935473    0.49485393
O      0.07230454   -0.48877935   -1.45771687
H      0.98772565   -1.38833856    0.14906541
H      1.74081919   -3.07254163   -2.26247066
O     -0.35820261    1.66899570    0.59280666
H     -0.08296145    0.02332020    1.78012113
H     -0.52123323    1.90044639   -0.34042371
H      2.05251174    1.45053734    1.30997790
