20

O     -2.07862097   -0.96431437   -2.07540679
C     -1.26397714   -0.65011842   -1.22170989
C     -1.58414866   -0.41201443    0.24345098
C     -0.30065767    0.24186503    0.72998988
C      0.73836023   -0.37530109   -0.19342703
C      2.02202875    0.43493021   -0.34882674
O      2.60038563    0.74762316    0.91039126
H      1.85376807    1.36218772   -0.90822105
H      2.75141582   -0.14152741   -0.92827614
H      2.13216261   -3.67300143   -2.44658571
O     -1.83561273   -1.63034096    0.92560555
H     -2.44241720    0.26018357    0.33774551
H     -2.61066878   -2.03935473    0.49485393
O      0.07230454   -0.48877935   -1.45771687
H      0.98772565   -1.38833856    0.14906541
H      1.74081919   -3.07254163   -2.26247066
O     -0.35820261    1.66899570    0.59280666
H     -0.08296145    0.02332020    1.78012113
H     -0.52123323    1.90044639   -0.34042371
H      2.05251174    1.45053734    1.30997790