20

O      1.62696985    2.18450535    1.85874175
C      1.66778037    1.52206591    0.82245058
C      0.63665744    1.63672506   -0.28797824
C     -0.46800468    0.56828279   -0.20446376
C      0.03126427   -0.88928045   -0.08571746
C     -1.13380330   -1.88967793   -0.14617260
O     -1.78030046   -1.84953122   -1.40928157
H     -1.86332071   -1.68816877    0.64646230
H     -0.76331581   -2.90795353    0.01607332
H      2.45489276    0.76386487    0.67100522
O      1.29584245    1.57465370   -1.55197083
H      0.17764803    2.62910908   -0.19562775
H      1.54516014    2.48813816   -1.78402503
O      0.71336472   -1.05779370    1.16544184
H      0.73953343   -1.09706609   -0.89626709
H      1.03089847   -1.97862047    1.20242899
O     -1.35143685    0.87580121    0.88691274
H     -1.06302658    0.64934640   -1.12260790
H     -0.84127236    0.72548957    1.70720333
H     -2.65553116   -2.25988995   -1.29260785