9

C      0.52650131   -0.05963713    0.87728351
C     -0.00536757    0.07631206   -0.53339184
H      1.61148642    0.07509269    0.90023917
H      0.21696966    1.07008322   -0.93344857
H      0.43973073   -0.68056083   -1.18614847
O     -1.41333750   -0.10530403   -0.51636126
H     -1.72410269   -0.01253712   -1.43306854
H      0.06417247    0.68196596    1.53711393
H      0.28394716   -1.04541482    1.28778210
9

C      0.31166294   -0.13153812    0.55592863
C     -0.40147066    0.17616707   -0.72447180
H      1.37887060   -0.24564237    0.35221308
H     -0.07332906    1.09185031   -1.24461141
H      0.81009720   -1.18865782   -3.11634788
O     -1.29613393   -0.52501255   -1.18539459
H      0.23398053   -1.30840600   -3.56506824
H      0.15706458    0.69108912    1.25792268
H     -0.07666448   -1.05691347    0.98841341
