9

C     -0.83669404   -0.32881898   -0.09776037
C      0.40278288    0.53907349   -0.16472564
H     -1.73447860    0.25603988   -0.31637992
H     -0.94179708   -0.77755233    0.89549367
H     -0.76840704   -1.15397262   -0.81425798
O      1.55791123   -0.24330818    0.10072015
H      0.35313717    1.35144401    0.56662759
H      0.50952643    0.97784240   -1.16103532
H      1.45801903   -0.62074766    0.99131783
9

C     -0.58361294   -0.27220896    0.09374381
C      0.75687650    0.35789760   -0.12687699
H     -1.34139403    0.51223383    0.15609860
H     -0.57922347   -0.84749951    1.02282019
H     -0.80912551   -0.93572173   -0.74428560
O      1.70697739    0.21007703    0.63476795
H      0.02525117    1.78832285    2.43846733
H      0.84950206    0.97522174   -1.03626795
H      0.38993460    1.41185947    2.96084776
