9

C      0.52650131   -0.05963713    0.87728351
C     -0.00536757    0.07631206   -0.53339184
H      1.61148642    0.07509269    0.90023917
H      0.21696966    1.07008322   -0.93344857
H      0.43973073   -0.68056083   -1.18614847
O     -1.41333750   -0.10530403   -0.51636126
H     -1.72410269   -0.01253712   -1.43306854
H      0.06417247    0.68196596    1.53711393
H      0.28394716   -1.04541482    1.28778210