20

O     -2.21561247    1.88957703    0.78282244
C     -1.53731951    1.00029249    1.29820314
C     -0.72709878   -0.12880181    0.55851984
C     -0.04395776    0.32788760   -0.77963538
C      1.21408944   -0.47024114   -0.33974487
C      0.70653828   -0.37514192    1.10999391
O      6.84606358    0.33989949   -0.19843595
H      0.82984962   -1.29016199    1.69730827
H      1.12442105    0.46245669    1.68070559
H     -1.45428905    0.95732438    2.39760206
O     -1.52194352   -1.34124054    0.41409024
H      7.68818267   -0.07724574    0.03775530
H     -1.96488614   -1.21467071   -0.45044775
O      2.48379346    0.15467779   -0.60570702
H      1.21475135   -1.50348060   -0.71130904
H      2.70033828   -0.09147061   -1.52230501
O     -0.69406812   -0.13028702   -1.99038472
H      0.12443466    1.41168303   -0.82908362
H     -0.23904079    0.34159734   -2.71062810
H      6.17753844   -0.26265375    0.16068065
20

O     -2.73670242    0.86165171    0.52644451
C     -1.66945997    0.31938134    1.31224567
C     -0.38534273    0.09674849    0.62022397
C      0.01100362    0.27562260   -0.79390274
C      1.32778219   -0.44081102   -0.36454026
C      0.99620413   -0.05735882    1.09888863
O      7.27107127    0.25755964   -0.18146835
H      1.19341839   -0.84380827    1.83273157
H      1.46096167    0.87239076    1.44428431
H     -1.64599970    0.55967052    2.36868420
O     -1.25878445   -1.00009082    0.91967937
H      6.76392000    0.38851734    0.63376699
H     -2.87066265    0.29318017   -0.25548032
O      2.55346203    0.10072061   -0.90244735
H      1.29726195   -1.52725819   -0.52831722
H      2.66328354   -0.33515646   -1.76533574
O     -0.77524045   -0.36215617   -1.82107137
H      0.15476592    1.33563267   -1.04132570
H     -0.31595104   -0.14835911   -2.65076154
H      7.04959256   -0.64607698   -0.45229864
