20

O     -2.21561247    1.88957703    0.78282244
C     -1.53731951    1.00029249    1.29820314
C     -0.72709878   -0.12880181    0.55851984
C     -0.04395776    0.32788760   -0.77963538
C      1.21408944   -0.47024114   -0.33974487
C      0.70653828   -0.37514192    1.10999391
O      6.84606358    0.33989949   -0.19843595
H      0.82984962   -1.29016199    1.69730827
H      1.12442105    0.46245669    1.68070559
H     -1.45428905    0.95732438    2.39760206
O     -1.52194352   -1.34124054    0.41409024
H      7.68818267   -0.07724574    0.03775530
H     -1.96488614   -1.21467071   -0.45044775
O      2.48379346    0.15467779   -0.60570702
H      1.21475135   -1.50348060   -0.71130904
H      2.70033828   -0.09147061   -1.52230501
O     -0.69406812   -0.13028702   -1.99038472
H      0.12443466    1.41168303   -0.82908362
H     -0.23904079    0.34159734   -2.71062810
H      6.17753844   -0.26265375    0.16068065