20

O     -2.08900506    2.59902218    0.74969985
C     -1.85808546    1.47802203    0.48256083
C     -1.55715089    0.25266923    0.16329284
C     -0.44260916   -0.14430034   -0.75434538
C      0.94517804   -0.37084595   -0.09888804
C      1.23552929    0.46275325    1.14234295
O      7.54785312    0.25755964   -0.18146835
H      0.60688620    0.14548621    1.98108563
H      2.28129590    0.35028684    1.44829641
H      1.07496248    1.52927681    0.95814392
O     -2.44539798   -0.73995105    0.54567498
H      7.04070184    0.38851734    0.63376699
H     -2.20745302   -1.51301273   -0.01313555
O      1.93798516   -0.08594434   -1.09815032
H      1.06969307   -1.43155971    0.14927579
H      2.81458400   -0.14872919   -0.67803049
O     -0.84624300   -1.38915570   -1.37083091
H     -0.36523108    0.58443301   -1.57136623
H     -0.15493850   -1.57845053   -2.03562629
H      7.32637440   -0.64607698   -0.45229864