20

O     -2.64628443    1.42626358    0.92351071
C     -1.56098351    0.97205884    1.28757044
C     -0.71184796   -0.13775769    0.56123445
C     -0.05178868    0.33754702   -0.78245217
C      1.21708077   -0.45546702   -0.36123365
C      0.73604265   -0.33826927    1.09734653
O      7.03896122    0.33989949   -0.19843595
H      0.88983009   -1.23741454    1.70169610
H      1.14777027    0.52026145    1.64049705
H     -1.10443783    1.35621417    2.21560719
O     -1.46308434   -1.38004162    0.43827368
H      7.88108031   -0.07724574    0.03775530
H     -2.10284577   -1.18359893   -0.27571806
O      2.47918026    0.17040238   -0.65995606
H      1.21161788   -1.49364607   -0.71899704
H      2.73164158   -0.17340368   -1.53519571
O     -0.70409456   -0.09803388   -1.99778330
H      0.10994400    1.42337065   -0.81636326
H     -0.17774041    0.29151462   -2.71803688
H      6.37043608   -0.26265375    0.16068065