20

O      2.53399967   -2.22255993    0.39487182
C      1.58747911   -1.97096019   -0.35213226
C      0.93197465   -0.61255651   -0.43782581
C     -0.42232782   -0.55151973    0.32403676
C     -0.72849916    0.86425026    0.85678903
C     -0.60341057    2.01285613   -0.13961686
O      0.35555374    2.95532279    0.33181470
H     -1.55646793    2.54659125   -0.21024535
H     -0.32952639    1.71389855   -1.15142087
H      1.12154445   -2.77006280   -0.95040564
O      0.73105755   -0.33456779   -1.83255090
H      1.64594841    0.11720866   -0.04175968
H     -0.14993434   -0.70939762   -2.05066084
O     -1.45313492   -0.97916337   -0.56316866
H     -0.09815621    1.05504659    1.73572071
H     -2.28963865   -0.81050379   -0.09070886
O     -0.50710527   -1.40684572    1.45166922
H     -1.76024278    0.86662048    1.23594092
H     -0.24457443   -2.30551499    1.19550146
H      1.23546088    2.54185772    0.29415112