20

O     -2.30225633    1.27656977    1.13201995
C     -2.14448278    0.05560460    1.09869746
C     -0.83009105   -0.64444338    0.79207851
C      0.00055624    0.07835891   -0.23332497
C      1.50948866   -0.03512366   -0.19634607
C      0.84348511    1.26996494    0.13051000
O      2.66735776   -1.98512812    3.92744687
H      0.84852364    1.60001963    1.16304177
H      0.90590572    2.08179487   -0.58443965
H     -2.96681394   -0.61317316    1.40393120
O     -1.11228372   -1.95334158    0.29210574
H     -0.30048369   -0.76570642    1.74313514
H     -1.27165661   -1.82828964   -0.66541249
O      2.13945192   -0.09562673   -1.49134320
H      1.95215625   -0.60651010    0.61299974
H      3.10650998   -0.01050389   -1.41170327
O     -0.55388156    0.04750887   -1.57013131
H      2.96627611   -1.34046342    3.26864776
H      0.17587217    0.14289696   -2.21581856
H      3.46842903   -2.19355130    4.43123809