9
25.72392162498727
C        0.463459      -0.296516       0.719629
C       -0.367280       0.295264      -0.402262
H        1.529381      -0.341152       0.475738
H        0.176244       1.018915      -1.054722
H        0.178115      -1.412511      -1.964593
O       -1.561599       0.218319      -0.452228
H       -0.514616      -1.192442      -1.938800
H        0.343848       0.384860       1.573713
H        0.086654      -1.281665       1.009669
9
25.46125236658554
C        0.497568      -0.297638       0.739333
C       -0.346429       0.288110      -0.374005
H        1.561343      -0.336858       0.478688
H        0.187893       1.011626      -1.030506
H        0.254741      -1.420340      -1.934730
O       -1.564702       0.192876      -0.421748
H       -0.469163      -1.206981      -1.895262
H        0.368599       0.369790       1.599737
H        0.132368      -1.290287       1.024720
