20

O     -1.15083468    2.06715215    1.70834438
C     -1.57200216    0.98075668    1.30881794
C     -0.77012752   -0.12096973    0.51949120
C      0.00689554    0.41502154   -0.73470320
C      1.19394130   -0.49490240   -0.31114592
C      0.61898786   -0.49105283    1.11700404
O      6.81565758    0.00171390   -0.38971698
H      0.66408615   -1.45731865    1.62861767
H      1.05228195    0.27031757    1.77586832
H     -2.62582359    0.71410501    1.49804255
O     -1.61085663   -1.27538790    0.21625783
H      6.41368207    0.54570463    0.30414956
H     -1.81593708   -1.16391950   -0.73556282
O      2.51056546    0.06509030   -0.47024524
H      1.15017413   -1.49121515   -0.77088912
H      2.76083495   -0.12192968   -1.39148177
O     -0.61431891    0.10104448   -2.00615141
H      0.23696163    1.48678136   -0.68147214
H     -0.03482841    0.51642676   -2.67079230
H      7.45715530   -0.54741852    0.08556742