20

O     -3.39215108    0.61981793    1.00699654
C     -2.18479412    0.85883792    0.98093922
C     -1.11779624   -0.22842723    0.96367636
C      0.15058173    0.24722669    0.30365577
C      0.68535555   -0.34469790   -0.98433640
C      2.10846230   -0.20756038   -1.39302300
O      7.39545038    0.14218672   -0.07618027
H      2.68817043   -1.05660576   -1.01830796
H      2.18629761   -0.19804730   -2.48468222
H     -1.81489120    1.89780194    1.01343265
O     -1.57247470   -1.45039350    0.38943095
H     -0.88882162   -0.44575964    2.01311078
H     -2.25635454   -1.20772916   -0.26356587
O     -0.04459835    0.88470352   -0.96921586
H      0.20883107   -1.21519856   -1.41432503
H      2.56649931    0.71212585   -1.01537327
O      1.08685962    0.89553215    1.17975285
H      6.98384639   -0.66219620   -0.42619637
H      1.59082422    0.23837344    1.69183450
H      6.71612507    0.52000947    0.50237663