20

O     -3.16860635   -0.35346718    0.64599190
C     -2.10845069    0.22703675    0.46114987
C     -0.76213646   -0.29593518    0.96010983
C      0.38549248    0.26986980    0.15510181
C      0.61471005   -0.17914339   -1.27025667
C      1.60442935   -0.54543839   -0.20120905
O      7.19403514    0.14218672   -0.07618027
H      1.64973692   -1.58465599    0.10479966
H      2.57189402   -0.05839682   -0.21807462
H     -2.07962317    1.19908384   -0.06561751
O     -0.71031025   -1.71686313    1.00938239
H     -0.65342808    0.06163177    1.99017132
H     -1.33506824   -2.05058594    0.33940917
O      1.02972106    0.85580418   -2.17769372
H      0.01011763   -0.98347246   -1.67522822
H      1.15705197    1.69352545   -1.69141312
O      0.64906043    1.67247415    0.40049107
H      6.78243115   -0.66219620   -0.42619637
H      1.14540932    1.78853255    1.23288592
H      6.51470983    0.52000947    0.50237663