20

O      0.92472409    0.84562696    3.50965960
C      0.36018044    1.11348808    2.46108223
C      0.74647330    0.57278238    1.11349045
C     -0.41023360    0.46440368    0.11631582
C      0.05900915    0.23123746   -1.35659400
C     -0.51347632   -1.02263927   -2.03142376
O     -0.15777676   -2.17411137   -1.25190922
H     -0.07026551   -1.15683561   -3.02378800
H     -1.60241908   -0.97340128   -2.11998639
H      1.53363204    1.23468784    0.73810450
O     -0.60439294    2.04909061    2.44116137
H      1.16740594   -0.42602220    1.28396274
H     -0.70509262    2.29628224    3.38419939
O      1.49043088    0.14556266   -1.44449006
H     -0.22456140    1.10851262   -1.94934992
H      1.72513394   -0.75901863   -1.15972436
O     -1.30546117   -0.56576194    0.56047481
H     -1.00267018    1.38621587    0.11968368
H     -0.88854554   -1.42343345    0.33310874
H     -0.52209469   -2.94666663   -1.72397760