20

O     -1.67914889    1.16957431    2.53003162
C     -1.56064027    1.00325340    1.31616749
C     -0.73300100   -0.11333173    0.56935237
C     -0.06155163    0.36582424   -0.76646398
C      1.19077219   -0.45790194   -0.35613896
C      0.71268677   -0.33946044    1.10383472
O      7.19150682    0.10176986   -0.35510899
H      0.85209790   -1.24343135    1.70437829
H      1.13513322    0.51113141    1.65141985
H     -2.06864285    1.70540155    0.63307350
O     -1.50360418   -1.34213105    0.41463351
H      6.30865412    0.28619522   -0.00082182
H     -1.89685620   -1.26148454   -0.47693577
O      2.46107103    0.14755422   -0.66127084
H      1.16189937   -1.49346289   -0.72050313
H      2.76682729   -0.28997372   -1.47516989
O     -0.74470135   -0.04531631   -1.97402721
H      0.12385345    1.44769413   -0.79388621
H     -0.15619486    0.23606073   -2.69849534
H      7.63144218   -0.38796507    0.35593080