20

O     -2.16928023   -0.41948171    2.81961677
C     -1.09849088   -0.08151892    2.33900158
C     -0.58784028   -0.45092704    0.97629144
C     -0.04756513    0.75262243    0.20107046
C      0.94399559    0.36437921   -0.93010426
C      0.49230580   -0.78135841   -1.85705474
O     -0.23305538   -0.28389300   -2.97347872
H     -0.13433521   -1.51359568   -1.34169020
H      1.36611091   -1.32238199   -2.23750922
H      0.17711586   -1.22042208    1.12406647
O     -0.19489957    0.56802586    3.09563877
H     -1.43038615   -0.89939908    0.43579038
H     -0.65661428    0.69085580    3.95243735
O      2.21632782    0.04382985   -0.34871174
H      1.10571108    1.25508048   -1.55021561
H      2.17202296   -0.84451926    0.04120716
O     -1.16236058    1.47733235   -0.32306776
H      0.47771464    1.43036745    0.88472443
H     -0.81399465    2.27809199   -0.75544592
H     -0.42248232   -1.04308823   -3.55256666
20

O     -1.09732558   -1.29050837    1.53650863
C     -0.36949954   -0.29277517    1.49309470
C      0.49553879    0.00056678    0.28854996
C     -0.20980712   -0.37134689   -1.01556351
C      0.59340138    0.14336195   -2.23666788
C     -0.21757391    0.65482857    2.68076356
O     -0.94392924    0.25660086    3.82769447
H     -0.57452167    1.64434399    2.38068206
H      0.84106111    0.71674378    2.94762050
H      0.72812637    1.07022990    0.30431338
O     -0.08387925   -0.07271638   -3.46061771
H      1.42630097   -0.56355810    0.41262612
H     -1.00530200   -0.29165637   -3.24416258
O      0.79747973    1.53828615   -2.13278191
H      1.56349948   -0.36270321   -2.29383987
H      1.33674334    1.75251381   -2.91434721
O     -0.35724039   -1.79302623   -1.11719641
H     -1.21905317    0.05814350   -1.03539799
H     -0.85037750   -2.08533767   -0.32094419
H     -0.85364182   -0.71199092    3.89966589
