20

O     -2.16928023   -0.41948171    2.81961677
C     -1.09849088   -0.08151892    2.33900158
C     -0.58784028   -0.45092704    0.97629144
C     -0.04756513    0.75262243    0.20107046
C      0.94399559    0.36437921   -0.93010426
C      0.49230580   -0.78135841   -1.85705474
O     -0.23305538   -0.28389300   -2.97347872
H     -0.13433521   -1.51359568   -1.34169020
H      1.36611091   -1.32238199   -2.23750922
H      0.17711586   -1.22042208    1.12406647
O     -0.19489957    0.56802586    3.09563877
H     -1.43038615   -0.89939908    0.43579038
H     -0.65661428    0.69085580    3.95243735
O      2.21632782    0.04382985   -0.34871174
H      1.10571108    1.25508048   -1.55021561
H      2.17202296   -0.84451926    0.04120716
O     -1.16236058    1.47733235   -0.32306776
H      0.47771464    1.43036745    0.88472443
H     -0.81399465    2.27809199   -0.75544592
H     -0.42248232   -1.04308823   -3.55256666