20

O     -0.57803733    0.98038982    0.04123113
C     -1.47522741    0.62082629    1.12668866
C     -0.98544860   -0.83641697    1.03434111
C     -0.01725474   -0.17511818    0.04759549
C      1.05335529   -0.66780719   -0.59419333
C      1.96726985    0.04043009   -1.54742604
O      1.62015844    1.39882146   -1.75727286
H      1.95320508   -0.46906422   -2.51562374
H      2.99198230    0.01130147   -1.16460020
H     -2.52229591    0.76171863    0.83437727
O     -1.85402618   -1.82293942    0.43655144
H     -0.54015720   -1.22035269    1.95750212
H     -2.10818038   -1.44730210   -0.42466100
O      7.45114415   -0.02676673    0.10665056
H      1.30697988   -1.70842175   -0.40390113
H      7.08853811    0.22047419   -0.75726483
O     -1.19046012    1.35213516    2.33280663
H      6.66680030   -0.19370745    0.65061427
H     -0.28991650    1.68584823    2.17431334
H      0.66805356    1.49595136   -1.57772888