20

O     -2.44303769   -0.69664279   -0.73273859
C     -2.23564907   -0.47570067    0.66195345
C     -1.16690454   -1.10728633   -0.20414087
C      0.05944802   -0.32696166   -0.53333876
C      0.77892649    0.35280906    0.37984012
C      1.98873459    1.19281902    0.14533048
O      1.93982778    2.31237329    1.01629570
H      2.05695806    1.56615294   -0.88062371
H      2.89278720    0.62327024    0.37646561
H     -2.12364709    0.54834232    0.99100145
O     -1.06591117   -2.53838297   -0.07115498
H     -2.76392604   -1.11530947    1.35783867
H     -1.44128968   -2.93429852   -0.87611021
O      7.75491085   -0.02676673    0.10665056
H      0.45313519    0.31163464    1.41858912
H      7.39230481    0.22047419   -0.75726483
O      0.46284098   -0.38795303   -1.85988059
H      6.97056700   -0.19370745    0.65061427
H      1.41131272   -0.19373955   -1.91690420
H      1.19639429    2.86887346    0.72757732