20

O      1.62438612    1.05510832    0.19016654
C      0.70193842    1.84815626    0.25485974
C     -0.77221528    1.56991938    0.22579976
C     -1.18554030    0.09908418    0.31845126
C     -0.50734565   -0.91126327   -0.63968332
C      0.76149636   -1.60393652   -0.09467743
O      0.66492558   -3.01675832   -0.30643405
H      0.89534327   -1.45281153    0.97912445
H      1.66172463   -1.27507816   -0.62181765
H     -1.22083768    2.11647233    1.06469823
O      0.95679746    3.17313248    0.28196853
H     -1.15557844    1.99234533   -0.71037630
H      1.93454011    3.23646937    0.26260232
O     -0.27574539   -0.29932044   -1.91552340
H     -1.24839763   -1.69955133   -0.82570007
H      0.64359757    0.02365257   -1.92743172
O     -1.15929519   -0.33380005    1.68049086
H     -2.25047807    0.10313957    0.04516341
H     -1.56245873   -1.22148081    1.71054407
H      1.49314284   -3.40347935    0.02777477
20

O     -2.30579409   -1.92108013   -1.32767975
C     -1.49127111   -1.25519073   -1.94531697
C     -0.43107221   -0.35011623   -1.37957400
C      1.30247066    0.58519497    1.69342349
C      0.18803475    1.05129769    0.71696013
C     -0.64474069   -0.10098742    0.11626772
O      0.78257486    0.15842997    2.93510451
H     -0.48747650   -1.03443391    0.67169422
H     -1.70396760    0.13984359    0.28014185
H      0.54956099   -0.80325227   -1.55654775
O     -1.47878168   -1.26829771   -3.29356061
H     -0.50087360    0.59229410   -1.93349136
H     -2.22071321   -1.85966609   -3.53675264
O      0.72685354    1.86685619   -0.32905458
H     -0.49830554    1.69061400    1.28638825
H      1.25726266    2.57224985    0.07859158
O      2.06118090   -0.48089790    1.16556937
H      1.98502125    1.42156243    1.88192105
H      2.84562938   -0.53890688    1.73702390
H      0.06440727   -0.46551353    2.73889159
