20

O     -0.40477856   -1.04274928   -2.51743940
C     -0.51467457    0.09294044   -2.06300905
C     -1.23740660    0.46069056   -0.76982093
C     -0.21029418    0.91922398    0.30104786
C      0.43856059   -0.20601860    1.12262395
C      1.08379284   -1.31717100    0.30954504
O      1.89337878   -2.10121672    1.18051713
H      1.72589824   -0.91877430   -0.48070644
H      0.32524917   -1.97392838   -0.12534509
H     -0.06591282    0.94764356   -2.59975033
O     -2.10078036   -0.55221835   -0.26817834
H     -1.88497146    1.30469456   -1.03928599
H     -2.45058246   -0.23411496    0.58437173
O      0.76727088    1.77408622   -0.26861246
H     -0.29706189   -0.64907795    1.80770811
H      1.50981024    1.81184839    0.36183379
O     -0.89842954    1.74643854    1.24065809
H      1.19689011    0.22713940    1.79039176
H     -1.07231059    2.57986760    0.76914236
H      2.19635219   -2.86930374    0.66430823
20

O     -1.62270366   -0.30216700    1.70398462
C     -0.86840569    0.66761082    1.65433832
C      0.51431568    0.67541872    1.00312924
C      0.64159940    1.85190846    0.00915412
C      0.19825097   -1.07197367   -0.62783744
C      0.15586327   -2.59593263   -0.56753540
O     -0.67848564   -3.11810358   -1.59520165
H     -0.21777957   -2.93926589    0.40354026
H      1.16158208   -3.01126349   -0.68834540
H     -1.15245014    1.60957524    2.15425367
O      0.94789678   -0.58002256    0.48077109
H      1.19582200    0.88735061    1.83720515
H      1.64397725    1.83352689   -0.43351875
O      0.45389815    3.09981006    0.64364311
H      0.68695116   -0.75246842   -1.55528785
H     -0.47457555    3.32734584    0.45423443
O     -0.30766211    1.80855124   -1.03764506
H     -0.82592300   -0.68626066   -0.65290497
H      0.14017713    2.17026815   -1.82352620
H     -1.59234853   -2.87390811   -1.36245130
