20

O     -2.17634537    0.36888287    2.76947986
C     -1.65807476   -0.20371311    1.81192289
C     -1.58426506    0.42993258    0.43404680
C     -0.13450461    0.63478004   -0.02817545
C      0.66953949   -0.66813045   -0.14008636
C      2.07429151   -0.42380453   -0.71377116
O      2.86848791   -1.59839952   -0.54975636
H      2.57537917    0.39207814   -0.18369676
H      2.03456496   -0.19692692   -1.78385843
H     -1.26813117   -1.23104079    1.90253074
O     -2.20672764    1.72715378    0.44143620
H     -2.15491832   -0.18704642   -0.26690512
H     -2.74550486    1.76434358    1.26028474
O     -0.05762920   -1.58230966   -0.97474697
H      0.76501003   -1.14930884    0.83854224
H     -0.05052246   -1.19332470   -1.87098009
O     -0.17316930    1.26782615   -1.32511324
H      0.37968057    1.33350937    0.64284012
H     -0.86337406    1.96112058   -1.24447449
H      3.70621317   -1.44562215   -1.01951918
20

O     -2.15006220   -0.18997819    1.90656169
C     -1.64009680   -0.89535438    1.04112743
C     -0.80144592   -0.37764151   -0.10606765
C     -1.08775390    1.10776017   -0.33041356
C      0.64881452   -0.76610069    0.23739259
C      1.75399543    0.26773312   -0.00252285
O      3.00189327   -0.31517067    0.39935319
H      1.59999114    1.18339574    0.57572056
H      1.86133187    0.50637569   -1.06319136
H     -1.72303131   -1.99498740    1.10271875
O     -2.42958859    1.35648102   -0.70311074
H     -1.13677597   -0.93416986   -0.99184839
H     -2.73564128    0.61073665   -1.24356439
O      0.97080127   -1.96079334   -0.50337221
H      0.72474397   -1.07642369    1.28766460
H      1.94870889   -1.97935606   -0.57165254
O     -0.33045614    1.58789212   -1.42214498
H     -0.85269125    1.70924130    0.55390470
H     -0.63567387    2.50538137   -1.53951595
H      3.01293688   -0.34502140    1.37296114
