20

O     -2.17634537    0.36888287    2.76947986
C     -1.65807476   -0.20371311    1.81192289
C     -1.58426506    0.42993258    0.43404680
C     -0.13450461    0.63478004   -0.02817545
C      0.66953949   -0.66813045   -0.14008636
C      2.07429151   -0.42380453   -0.71377116
O      2.86848791   -1.59839952   -0.54975636
H      2.57537917    0.39207814   -0.18369676
H      2.03456496   -0.19692692   -1.78385843
H     -1.26813117   -1.23104079    1.90253074
O     -2.20672764    1.72715378    0.44143620
H     -2.15491832   -0.18704642   -0.26690512
H     -2.74550486    1.76434358    1.26028474
O     -0.05762920   -1.58230966   -0.97474697
H      0.76501003   -1.14930884    0.83854224
H     -0.05052246   -1.19332470   -1.87098009
O     -0.17316930    1.26782615   -1.32511324
H      0.37968057    1.33350937    0.64284012
H     -0.86337406    1.96112058   -1.24447449
H      3.70621317   -1.44562215   -1.01951918