20

O     -1.05875731    0.86287307    3.04294312
C     -0.42409042    1.52081901    2.23691135
C      0.24458369    1.05489758    0.97365291
C     -0.45400786   -0.17048764    0.37551992
C     -0.48153668   -0.19186985   -1.18560105
C     -0.11739234   -1.54608887   -1.80683577
O      1.27451118   -1.79332133   -1.54045818
H     -0.23453389   -1.50764824   -2.89463176
H     -0.71644539   -2.36586967   -1.40090410
H      0.20153046    1.90314494    0.28327256
O     -0.23509997    2.84172555    2.44372977
H      1.29270185    0.83806351    1.20994470
H     -0.70721766    3.01984287    3.28350552
O      0.42637675    0.77084769   -1.74525082
H     -1.48451790    0.10458510   -1.51325214
H      1.30339136    0.33765515   -1.73959709
O      0.17329269   -1.34565148    0.91194136
H     -1.49663935   -0.22354060    0.71195921
H      0.98396381   -1.50988556    0.38873675
H      1.50988698   -2.60009126   -2.03558626
20

O     -2.29618162   -1.86298404   -1.19233680
C     -2.41134133   -1.08892616   -0.25238861
C     -1.29901408   -0.49514240    0.58669132
C     -0.05379267   -0.27748923   -0.23086444
C      0.90706367    0.59999418    0.09030811
C      2.15280617    0.82248372   -0.71961354
O      3.23985025    0.93404409    0.19655943
H      2.07810646    1.76423704   -1.27138467
H      2.35734058    0.01128319   -1.42478750
H     -1.65090250    0.45686092    1.00028565
O     -3.63733232   -0.72758607    0.17601004
H     -1.09623124   -1.19206837    1.40619583
H     -4.24756577   -1.18987843   -0.43583162
O      0.83037227    1.32067395    1.26915577
H      2.01006559   -2.58486407   -0.06350318
H      1.70563342    1.75009301    1.37559796
O      1.25817315   -2.83427042    0.49454272
H      0.05236477   -0.86709527   -1.13996948
H      1.56256115   -2.64632629    1.39509030
H      3.36882396    0.04149988    0.56637252
