20

O     -1.05875731    0.86287307    3.04294312
C     -0.42409042    1.52081901    2.23691135
C      0.24458369    1.05489758    0.97365291
C     -0.45400786   -0.17048764    0.37551992
C     -0.48153668   -0.19186985   -1.18560105
C     -0.11739234   -1.54608887   -1.80683577
O      1.27451118   -1.79332133   -1.54045818
H     -0.23453389   -1.50764824   -2.89463176
H     -0.71644539   -2.36586967   -1.40090410
H      0.20153046    1.90314494    0.28327256
O     -0.23509997    2.84172555    2.44372977
H      1.29270185    0.83806351    1.20994470
H     -0.70721766    3.01984287    3.28350552
O      0.42637675    0.77084769   -1.74525082
H     -1.48451790    0.10458510   -1.51325214
H      1.30339136    0.33765515   -1.73959709
O      0.17329269   -1.34565148    0.91194136
H     -1.49663935   -0.22354060    0.71195921
H      0.98396381   -1.50988556    0.38873675
H      1.50988698   -2.60009126   -2.03558626