20

O     -2.02953462   -1.22128588    1.31197998
C     -0.81023687   -1.36642299    1.37365859
C      0.18865207   -0.22778397    1.31198295
C      0.34888511    0.44190728   -0.03132228
C     -0.71182385    0.40725451   -1.11600104
C      0.56429153   -0.36803230   -1.28552674
O      6.88599061   -0.29788188   -0.17555885
H      0.51873094   -1.44810012   -1.22093595
H      1.30100864   -0.00747073   -1.99419413
H     -0.37437926   -2.37835336    1.43679375
O      1.45516438   -0.75295291    1.72452236
H     -0.12555805    0.51947238    2.05061800
H      1.58714979   -0.47879491    2.64804132
O     -0.80453681    1.61008916   -1.90655821
H     -1.62644146   -0.14853868   -0.94402887
H     -1.33141079    1.45194688   -2.71065440
O      1.09147462    1.68557971    0.02615577
H      7.63072909    0.21362006   -0.52583212
H      0.75856461    2.28148594   -0.67453114
H      6.73143896    0.08426183    0.70139096