20

O     -2.73532042    0.88506972    0.05924264
C     -1.90380491    0.27186925    0.73427536
C     -0.79000622   -0.62536279    0.18302661
C      0.38454750    0.20385373   -0.27086889
C      1.63380659    0.04161757    0.17755009
C      0.26327843    2.80916748    2.46428264
O     -0.87462895    2.11068780    2.93502192
H      0.31205594    3.79128574    2.94092259
H      1.16014449    2.23890193    2.71736269
H     -1.97393386    0.29071423    1.83366454
O     -1.19816736   -1.46741762   -0.88515816
H     -0.49799011   -1.28671019    1.00664247
H     -2.15716833   -1.60108280   -0.79673837
O      2.66363506    0.81589154   -0.29458590
H      1.93379654   -0.69947138    0.90619099
H      3.50131513    0.43723817    0.03037318
O      0.13464501    1.17142037   -1.23332963
H      0.19979467    2.92164112    1.37918325
H      1.00464537    1.56237021   -1.45028493
H     -1.65419303    2.64044706    2.69606748