20

O     -2.43839581   -1.67885167    1.01641398
C     -1.49715683   -0.94082406    1.29094186
C     -0.04587416   -1.13443223    0.85823535
C      0.42180522   -0.14471009   -0.19349818
C      0.20373902    1.34609425   -0.04949089
C     -0.52426330    0.58117487   -1.11942347
O      7.31700537   -0.25911128   -0.22059204
H     -1.59244610    0.43334321   -1.01274168
H     -0.21666754    0.71277878   -2.15131901
H     -1.67617661   -0.03366072    1.89324966
O      0.20005964   -2.45486112    0.38132122
H      0.56904282   -1.00789964    1.75605018
H      0.78024062   -2.35492787   -0.39822042
O      1.30225422    2.15655120   -0.50615051
H     -0.37201130    1.71215938    0.79296036
H      0.99426927    3.03728442   -0.78824828
O      1.68197305   -0.51898225   -0.80420204
H      7.11721967    0.66787728   -0.41993818
H      2.20960779    0.28976357   -0.96587813
H      6.89863600   -0.40876600    0.64053021
20

O     -2.78018317   -0.21133954   -0.48640951
C     -1.88876415   -0.09745643    0.35387568
C     -0.70964677   -1.05663892    0.43706143
C      0.66187051   -0.52720408    0.09764095
C      1.10767301    0.72472255   -0.09924544
C      0.33968609    2.00732323   -0.11237755
O      7.03841016    0.14218672   -0.07618027
H     -0.64585718    1.89795646   -0.56906186
H      0.86573649    2.75879970   -0.71258369
H     -1.92192547    0.69094703    1.12482177
O     -0.91482745   -2.19195541   -0.41668691
H     -0.69349627   -1.44273731    1.46223444
H     -1.67057315   -1.95122849   -0.99465596
O      2.46142974    0.90194128   -0.36018353
H      0.23322475    2.40266733    0.90178023
H      2.84686859    0.00029048   -0.34051594
O      1.61724302   -1.54691075   -0.05248917
H      6.62680616   -0.66219620   -0.42619637
H      1.09154140   -2.35917710   -0.23320492
H      6.35908484    0.52000947    0.50237663
