20

O     -2.43839581   -1.67885167    1.01641398
C     -1.49715683   -0.94082406    1.29094186
C     -0.04587416   -1.13443223    0.85823535
C      0.42180522   -0.14471009   -0.19349818
C      0.20373902    1.34609425   -0.04949089
C     -0.52426330    0.58117487   -1.11942347
O      7.31700537   -0.25911128   -0.22059204
H     -1.59244610    0.43334321   -1.01274168
H     -0.21666754    0.71277878   -2.15131901
H     -1.67617661   -0.03366072    1.89324966
O      0.20005964   -2.45486112    0.38132122
H      0.56904282   -1.00789964    1.75605018
H      0.78024062   -2.35492787   -0.39822042
O      1.30225422    2.15655120   -0.50615051
H     -0.37201130    1.71215938    0.79296036
H      0.99426927    3.03728442   -0.78824828
O      1.68197305   -0.51898225   -0.80420204
H      7.11721967    0.66787728   -0.41993818
H      2.20960779    0.28976357   -0.96587813
H      6.89863600   -0.40876600    0.64053021