20

O     -2.79337465    0.29353978    1.62008637
C     -2.59214370    0.03472759    0.43273988
C     -1.23025105   -0.36493237   -0.11091365
C     -0.12756310    0.56813652    0.44951323
C      1.28330676    0.27769496   -0.10096760
C      1.60849375   -1.19344594   -0.32095919
O      2.99053680   -1.33765318   -0.63420506
H      1.03791206   -1.60825326   -1.15777381
H      1.40123735   -1.78952687    0.57178174
H     -3.42423959    0.01997603   -0.29059239
O     -1.26614272   -0.30819979   -1.53914921
H     -1.07668523   -1.40675015    0.19100523
H     -1.21357695    0.64026756   -1.77280602
O     -0.44143879    1.90652692    0.06088220
H      2.03238916    0.69912166    0.58464851
H      0.25898861    2.45393661    0.46031875
O     -0.06502889    0.55515011    1.86398367
H      1.44179161    0.81305168   -1.04662693
H     -0.98824406    0.59190431    2.19401036
H      3.16403260   -0.84527217   -1.45497609
20

O      0.45841919   -0.94879557    1.13067402
C     -0.00960477    0.42815955    1.11047158
C     -0.91040863    0.59004158   -0.11385424
C     -0.36480928   -0.47104514   -1.07042849
C      0.06544802   -1.57451710   -0.10309978
C      1.23352123    1.32138174    1.07594221
O      2.10520034    0.96312657    2.14919526
H      0.96542257    2.37613971    1.18670641
H      1.80284615    1.20138864    0.15063853
H     -0.55369946    0.58879338    2.04804262
O     -2.26936000    0.28062532    0.23881632
H     -0.89731621    1.60470769   -0.52391764
H     -2.66256879   -0.13700720   -0.55497592
O     -1.35114875   -0.89069214   -1.99317430
H     -0.75729754   -2.26333936    0.11720968
H     -0.99457141   -1.69810331   -2.40480692
O      0.72646245    0.00611341   -1.82945806
H      0.91348866   -2.15413058   -0.47909360
H      0.40430772    0.79316541   -2.30329692
H      2.09566851   -0.01601258    2.16840922
