20

O     -2.79337465    0.29353978    1.62008637
C     -2.59214370    0.03472759    0.43273988
C     -1.23025105   -0.36493237   -0.11091365
C     -0.12756310    0.56813652    0.44951323
C      1.28330676    0.27769496   -0.10096760
C      1.60849375   -1.19344594   -0.32095919
O      2.99053680   -1.33765318   -0.63420506
H      1.03791206   -1.60825326   -1.15777381
H      1.40123735   -1.78952687    0.57178174
H     -3.42423959    0.01997603   -0.29059239
O     -1.26614272   -0.30819979   -1.53914921
H     -1.07668523   -1.40675015    0.19100523
H     -1.21357695    0.64026756   -1.77280602
O     -0.44143879    1.90652692    0.06088220
H      2.03238916    0.69912166    0.58464851
H      0.25898861    2.45393661    0.46031875
O     -0.06502889    0.55515011    1.86398367
H      1.44179161    0.81305168   -1.04662693
H     -0.98824406    0.59190431    2.19401036
H      3.16403260   -0.84527217   -1.45497609