20

O      0.54417312   -2.47191865    2.62405293
C      0.72980121   -1.30741311    2.26801318
C      1.03983894   -0.92881597    0.82794273
C     -0.08307443    0.00159936    0.29117807
C      0.18061218    0.33535477   -1.18849183
C     -0.71368063    1.39139840   -1.84233690
O     -1.40244012    2.20127285   -0.89914045
H     -1.44506304    0.91261215   -2.50225923
H     -0.10011885    2.05730872   -2.45915589
H      0.71082257   -0.47904408    2.99554603
O      1.17963350   -2.09394568    0.01373797
H      2.00213483   -0.40311485    0.84178710
H      1.67188730   -2.74857137    0.54533493
O     -1.37203852   -0.59540952    0.38565644
H      0.09086114   -0.57724411   -1.79373225
H     -1.28872150   -1.44936449    0.84414073
O     -0.08370276    1.17441791    1.09219795
H      1.21938841    0.67107278   -1.29788028
H     -0.67002133    1.79218601    0.59951285
H     -2.21029198    2.51761888   -1.34610410
20

O     -2.73488139    0.07262257   -1.05263905
C     -1.84319128    0.72210572   -0.13390398
C     -1.34145942   -0.16381599    1.02450740
C      0.06114898    0.27666862    0.51928894
C      1.02012818   -0.85472826    0.15323311
C      2.38080674   -0.34827361   -0.31001779
O      2.27120258    0.71080189   -1.25213217
H      2.94874087   -1.16238944   -0.77165592
H      2.96649152    0.02255452    0.53716171
H     -2.23586474    1.69782186    0.17267143
O     -1.69860522   -1.57183305    0.94804416
H     -1.60279214    0.23193002    2.01146945
H     -2.34414449   -1.60122832    0.21220530
O     -0.51846845    0.84890941   -0.68419553
H      0.57765629   -1.46443554   -0.64477039
H     -2.57739248    0.55712349   -1.88246153
O      0.70766660    1.28486334    1.31441449
H      1.16948536   -1.51822100    1.01336659
H      1.27671009    1.74196447    0.66473509
H      1.51676243    0.51755929   -1.83932130
