20

O      0.54417312   -2.47191865    2.62405293
C      0.72980121   -1.30741311    2.26801318
C      1.03983894   -0.92881597    0.82794273
C     -0.08307443    0.00159936    0.29117807
C      0.18061218    0.33535477   -1.18849183
C     -0.71368063    1.39139840   -1.84233690
O     -1.40244012    2.20127285   -0.89914045
H     -1.44506304    0.91261215   -2.50225923
H     -0.10011885    2.05730872   -2.45915589
H      0.71082257   -0.47904408    2.99554603
O      1.17963350   -2.09394568    0.01373797
H      2.00213483   -0.40311485    0.84178710
H      1.67188730   -2.74857137    0.54533493
O     -1.37203852   -0.59540952    0.38565644
H      0.09086114   -0.57724411   -1.79373225
H     -1.28872150   -1.44936449    0.84414073
O     -0.08370276    1.17441791    1.09219795
H      1.21938841    0.67107278   -1.29788028
H     -0.67002133    1.79218601    0.59951285
H     -2.21029198    2.51761888   -1.34610410