20

O     -1.04584466    0.10991329    2.77770531
C     -1.15342352   -0.26727060    1.61284574
C     -0.05146623   -0.95773872    0.81678133
C      0.64105617    0.01416344   -0.11208106
C      0.04007796    0.86222895   -0.95596306
C     -4.46801812   -0.08287120    4.00588544
O     -4.08335037    0.12301990    5.35271211
H     -5.55749983   -0.04982823    3.92804650
H     -4.03669558    0.70835730    3.38819671
H     -2.08211413   -0.06723517    1.05170381
O     -0.60938486   -2.04412560    0.08055142
H      0.66245550   -1.37386443    1.53627617
H     -0.67054136   -1.78330288   -0.85270456
O      0.77776705    1.67972526   -1.77510073
H     -1.02957230    0.96826966   -1.07961362
H      0.16445623    2.22861452   -2.29906768
O      2.02823295   -0.02621974   -0.08317266
H     -4.09682045   -1.05215338    3.66408790
H      2.32830119    0.65684199   -0.71816039
H     -4.48059435   -0.59371442    5.87611768
20

O      1.09898548    0.75993690   -0.29117041
C      0.96886404   -0.66375003   -0.27879721
C     -0.41087647   -1.10072746   -0.82202700
C     -1.58990267   -0.44881001   -0.12224986
C     -1.76598688   -0.43841702    1.20520870
C      2.36296234    1.19077311    0.16312066
O      2.25081397    2.55734751    0.49400383
H      2.67399318    0.64813874    1.06113007
H      1.09973306   -1.02527240    0.74761349
H      1.75968230   -1.09144041   -0.90706312
O     -0.46613595   -0.85443185   -2.23259634
H     -0.50935184   -2.18658309   -0.69837894
H      0.11471422   -1.49702561   -2.66633524
O     -2.85672108    0.17041616    1.77358453
H     -1.09406720   -0.89362438    1.91929477
H     -2.76119383    0.11636477    2.74203629
O     -2.53806732    0.17218456   -0.92524670
H      3.11317202    1.06918503   -0.62393983
H     -3.16419990    0.59522264   -0.30647574
H      1.71358254    2.92051284   -0.23171195
