20

O     -1.03265367   -2.93816612    0.34255396
C     -0.08990625   -2.34902692    0.86842903
C      0.95235575   -1.54166647    0.09666511
C      0.58986042   -0.07476219   -0.02592778
C     -0.64504135    0.45020136    0.10331105
C     -1.06033904    1.88576946   -0.02172880
O      0.04993387    2.70839162   -0.36148976
H     -1.47799977    2.23718649    0.92662253
H     -1.81828928    1.98305342   -0.80500180
H      0.02480889   -2.33396605    1.96595122
O      1.13312286   -2.08114366   -1.20832645
H      1.89957479   -1.65291819    0.63570377
H      0.25209396   -2.07737980   -1.62311523
O      7.68570168    0.00058797    0.18234835
H     -1.48351593   -0.21455312    0.30505366
H      6.83843685   -0.32211024    0.52435593
O      1.67995365    0.73966661   -0.29385948
H      7.47228283    0.32152226   -0.70670428
H      1.33274253    1.65177043   -0.42302617
H     -0.30670145    3.60754313   -0.48181489
20

O     -0.77042505   -0.81084057   -0.46760256
C      0.00783748    0.00824828    0.00475698
C      3.94170781   -0.17995772    1.42105967
C      4.11807688    0.25171006    0.01135574
C      3.78560365    1.52646292   -0.14333178
C      3.32185377    2.05062388    1.16259203
O      3.34888189    0.93870891    2.08476433
H      2.29563692    2.42480660    1.10788356
H      3.97752316    2.84021842    1.54077584
H     -0.18628497    0.51987817    0.96094380
O      3.06302897   -1.28265216    1.45289015
H      4.89057428   -0.43984736    1.90032997
H      2.78005233   -1.31445546    2.38210570
O      2.60717678   -4.50588766    0.10665056
H      3.78940542    2.07202409   -1.07329336
H      2.24457074   -4.25864674   -0.75726483
O      4.47159081   -0.61027956   -0.98748972
H      1.82283293   -4.67282838    0.65061427
H      4.25372176   -1.50372205   -0.65498831
H      0.94887254    0.28271410   -0.49809822
