20

O     -1.03265367   -2.93816612    0.34255396
C     -0.08990625   -2.34902692    0.86842903
C      0.95235575   -1.54166647    0.09666511
C      0.58986042   -0.07476219   -0.02592778
C     -0.64504135    0.45020136    0.10331105
C     -1.06033904    1.88576946   -0.02172880
O      0.04993387    2.70839162   -0.36148976
H     -1.47799977    2.23718649    0.92662253
H     -1.81828928    1.98305342   -0.80500180
H      0.02480889   -2.33396605    1.96595122
O      1.13312286   -2.08114366   -1.20832645
H      1.89957479   -1.65291819    0.63570377
H      0.25209396   -2.07737980   -1.62311523
O      7.68570168    0.00058797    0.18234835
H     -1.48351593   -0.21455312    0.30505366
H      6.83843685   -0.32211024    0.52435593
O      1.67995365    0.73966661   -0.29385948
H      7.47228283    0.32152226   -0.70670428
H      1.33274253    1.65177043   -0.42302617
H     -0.30670145    3.60754313   -0.48181489