20

O     -0.25315869   -3.17726213    2.10417685
C     -0.53539052   -2.04901083    1.69735563
C     -0.24313085   -1.58912006    0.27306144
C      0.07225114   -0.11261907    0.18350294
C      0.32350076    0.50013219   -0.98959525
C      0.62694899    1.94460400   -1.23534875
O      0.58479042    2.68354451   -0.01788732
H     -0.11206315    2.36552068   -1.92383861
H      1.62476774    2.04963970   -1.67173216
H     -1.14245345   -1.36755756    2.31706046
O     -1.37974708   -1.87714984   -0.54053123
H      0.60954329   -2.16724064   -0.10211561
H     -1.53659693   -2.83453108   -0.45100653
O      7.79806678    0.06442983   -0.13814732
H      0.29264771   -0.10845382   -1.89261663
H      7.19991445   -0.66729109   -0.35206153
O      0.08798450    0.59070647    1.37571734
H      7.29386333    0.60286126    0.49020885
H      0.27117278    1.53123446    1.14122352
H      0.70893334    3.61756300   -0.26742607
20

O     -3.07654869    0.47573916    0.69350567
C     -1.92452751    0.74691220    0.36132893
C     -0.91010257   -0.27902979   -0.11092767
C      0.31398809   -0.26671371    0.73706052
C      1.40848769   -0.14974094   -0.00996575
C      1.00303258   -0.06568283   -1.43476337
O     -0.43068972    0.07743031   -1.42428702
H      1.26517195   -0.97564285   -1.98318730
H      1.43867099    0.80250395   -1.93637033
H     -1.56730821    1.79083494    0.38851551
O     -3.06016818    0.61454152   -2.40555249
H     -1.36938666   -1.27119899   -0.15512849
H     -3.58779228    1.29099687   -1.95501729
O      5.90486123   -4.35419485    0.10665056
H      2.43064478   -0.13739068    0.33316464
H      5.54225519   -4.10695393   -0.75726483
O      0.25590133   -0.38231119    2.09316831
H      5.12051738   -4.52113557    0.65061427
H      1.16266596   -0.36570958    2.44788636
H     -2.59040999    1.10568331   -3.09625356
