20

O     -3.07654869    0.47573916    0.69350567
C     -1.92452751    0.74691220    0.36132893
C     -0.91010257   -0.27902979   -0.11092767
C      0.31398809   -0.26671371    0.73706052
C      1.40848769   -0.14974094   -0.00996575
C      1.00303258   -0.06568283   -1.43476337
O     -0.43068972    0.07743031   -1.42428702
H      1.26517195   -0.97564285   -1.98318730
H      1.43867099    0.80250395   -1.93637033
H     -1.56730821    1.79083494    0.38851551
O     -3.06016818    0.61454152   -2.40555249
H     -1.36938666   -1.27119899   -0.15512849
H     -3.58779228    1.29099687   -1.95501729
O      5.90486123   -4.35419485    0.10665056
H      2.43064478   -0.13739068    0.33316464
H      5.54225519   -4.10695393   -0.75726483
O      0.25590133   -0.38231119    2.09316831
H      5.12051738   -4.52113557    0.65061427
H      1.16266596   -0.36570958    2.44788636
H     -2.59040999    1.10568331   -3.09625356