20

O     -0.25315869   -3.17726213    2.10417685
C     -0.53539052   -2.04901083    1.69735563
C     -0.24313085   -1.58912006    0.27306144
C      0.07225114   -0.11261907    0.18350294
C      0.32350076    0.50013219   -0.98959525
C      0.62694899    1.94460400   -1.23534875
O      0.58479042    2.68354451   -0.01788732
H     -0.11206315    2.36552068   -1.92383861
H      1.62476774    2.04963970   -1.67173216
H     -1.14245345   -1.36755756    2.31706046
O     -1.37974708   -1.87714984   -0.54053123
H      0.60954329   -2.16724064   -0.10211561
H     -1.53659693   -2.83453108   -0.45100653
O      7.79806678    0.06442983   -0.13814732
H      0.29264771   -0.10845382   -1.89261663
H      7.19991445   -0.66729109   -0.35206153
O      0.08798450    0.59070647    1.37571734
H      7.29386333    0.60286126    0.49020885
H      0.27117278    1.53123446    1.14122352
H      0.70893334    3.61756300   -0.26742607