20

O     -2.29382015    0.70600742    2.30911710
C     -1.62756983    0.91149632    1.29421784
C     -0.80086557   -0.13594036    0.44569087
C      0.07640533    0.49450489   -0.69486549
C      1.18982258   -0.51691418   -0.30377001
C      0.54003086   -0.59399602    1.09265569
O      6.90080735   -0.35372469   -0.01551536
H      0.52802220   -1.59416954    1.53603814
H      0.95511387    0.10760282    1.82573302
H     -1.57787853    1.94073113    0.90002662
O     -1.63338713   -1.24058807   -0.01714866
H      7.59474051   -0.01281077   -0.59963476
H     -2.03368790   -0.90524689   -0.84231138
O      2.53591011   -0.00712712   -0.34987966
H      1.11995461   -1.46711981   -0.84968671
H      2.89757769   -0.31248297   -1.20051951
O     -0.47315879    0.38230203   -2.02809852
H      0.36004974    1.53708577   -0.49969682
H      0.23748091    0.69385458   -2.61750252
H      6.75098291    0.36653546    0.61515013
20

O     -2.68179537    1.55901706    1.79994266
C     -1.78052169    1.40119600    0.97606851
C     -1.10368950    0.05354961    0.47193928
C     -0.08408540    0.21908156   -0.70833382
C      0.76320609   -0.75375347    0.13879610
C      2.23138660   -0.42283640    0.29801914
O      7.64363298    0.25755964   -0.18146835
H      2.69105107   -1.06443115    1.05664311
H      2.38145991    0.61882436    0.59967057
H     -1.37324942    2.29992813    0.48303760
O     -2.06710900   -1.01103646    0.26281342
H      7.13648170    0.38851734    0.63376699
H     -2.44006308   -0.81748070   -0.61507316
O      0.00485168   -0.38816808    1.32805066
H      0.61089578   -1.81360129   -0.10440101
H      2.76466509   -0.58363427   -0.64441530
O     -0.53352512   -0.22251004   -2.01287230
H      0.33926640    1.22780970   -0.78254204
H      0.27725597   -0.30195457   -2.54734343
H      7.42215426   -0.64607698   -0.45229864
