20

O     -2.68179537    1.55901706    1.79994266
C     -1.78052169    1.40119600    0.97606851
C     -1.10368950    0.05354961    0.47193928
C     -0.08408540    0.21908156   -0.70833382
C      0.76320609   -0.75375347    0.13879610
C      2.23138660   -0.42283640    0.29801914
O      7.64363298    0.25755964   -0.18146835
H      2.69105107   -1.06443115    1.05664311
H      2.38145991    0.61882436    0.59967057
H     -1.37324942    2.29992813    0.48303760
O     -2.06710900   -1.01103646    0.26281342
H      7.13648170    0.38851734    0.63376699
H     -2.44006308   -0.81748070   -0.61507316
O      0.00485168   -0.38816808    1.32805066
H      0.61089578   -1.81360129   -0.10440101
H      2.76466509   -0.58363427   -0.64441530
O     -0.53352512   -0.22251004   -2.01287230
H      0.33926640    1.22780970   -0.78254204
H      0.27725597   -0.30195457   -2.54734343
H      7.42215426   -0.64607698   -0.45229864