20

O     -1.10692633    2.12914993    1.72204252
C     -1.55880766    1.08706953    1.24541899
C     -0.75434956   -0.07657141    0.55254901
C     -0.01635283    0.34812481   -0.76599825
C      1.18969381   -0.51108692   -0.29305070
C      0.65631201   -0.36910415    1.14460551
O      7.14764972    0.25755964   -0.18146835
H      0.72970365   -1.27780254    1.74967650
H      1.09966439    0.45949898    1.70890747
H     -2.64828450    0.91544084    1.27593984
O     -1.58423742   -1.26536149    0.37885116
H      6.64049844    0.38851734    0.63376699
H     -1.81013141   -1.24971606   -0.57442852
O      2.49577811    0.03767116   -0.54860249
H      1.13956804   -1.54803381   -0.65112696
H      2.73260909   -0.26493215   -1.44232537
O     -0.66957898   -0.08491849   -1.98517204
H      0.20340762    1.42225145   -0.81625144
H     -0.09806803    0.24832033   -2.70103522
H      6.92617100   -0.64607698   -0.45229864