20

O     -0.24144522    2.09568407    2.22374064
C     -0.55811231    1.42500888    1.24054785
C      0.28424481    1.35345014   -0.02572073
C      0.88135860   -0.05046190   -0.28853252
C     -0.02538579   -1.03738091   -1.04734635
C     -1.43184356   -1.25642057   -0.51833065
O     -1.39914859   -1.57568583    0.85894141
H     -1.90339303   -2.08546608   -1.05659338
H     -2.04970450   -0.36576469   -0.66684744
H     -1.51306849    0.88198865    1.22791678
O      1.37883230    2.29005292    0.12615289
H     -0.30505450    1.70259547   -0.87865839
H      1.60086362    2.26677436    1.08270766
O      2.03637144    0.10975707   -1.12361856
H      0.48023770   -2.01341527   -1.06073315
H      2.39404260    0.98753374   -0.87524667
O      1.38080692   -0.58813098    0.92461098
H     -0.09830851   -0.73128812   -2.09919467
H      1.38465493   -1.55527610    0.83463334
H     -2.29594841   -1.85355485    1.12157099