20

O     -3.05111492    0.35732580   -1.72208074
C     -2.14160430    0.83564943   -1.06141614
C     -0.68070636    0.70444098   -1.36816700
C      0.01845163   -0.37668640   -0.53239633
C      1.12565780    0.21791415    0.37175988
C      1.71753452   -0.81152165    1.34395987
O      2.40245161   -1.84842143    0.65003280
H      0.93706431   -1.26250648    1.96632864
H      2.41309862   -0.32616946    2.03891486
H     -0.59176931    0.45485595   -2.43292063
O     -2.39454425    1.50576213    0.07759444
H     -0.20717248    1.68913231   -1.27709868
H     -3.36602664    1.42801609    0.18629273
O      0.62252316    1.32317732    1.12880140
H      1.92649670    0.60099815   -0.27269691
H     -0.26849973    1.06509673    1.43741227
O     -0.92276325   -1.08404933    0.28385005
H      0.48314011   -1.11026234   -1.20276198
H     -1.37189894   -1.73562539   -0.28661348
H      3.34968172   -1.62712656    0.67120492
20

O     -1.62183294   -1.05461971    0.35312644
C     -0.58797882   -0.52302823   -0.01585685
C      0.19172002    0.56368754    0.70428435
C     -1.43416868    3.16808764   -1.42520901
C     -0.35901993    3.93626334   -1.62154558
C      0.50097216    3.92250679   -2.84377155
O      0.53429204    5.22400785   -3.41522368
H      0.14605323    3.22566231   -3.60825091
H      1.52381709    3.64008485   -2.57559534
H     -0.49712438    1.14581045    1.32193960
O      0.03635548   -0.93140356   -1.14487382
H      0.94281787    0.09072523    1.34321592
H     -0.54641138   -1.64260858   -1.48826942
O      0.84537136    1.45618999   -0.18834947
H     -0.06590584    4.61761651   -0.82802621
H      1.23708278    0.89524689   -0.88521675
O     -1.87926372    2.25898221   -2.34052552
H     -2.03062231    3.20570474   -0.52176095
H     -2.72133103    1.88849593   -2.02184235
H      0.62571866    5.86449119   -2.69251215
