20

O     -1.08198353   -3.29360829   -0.27053153
C     -0.29919782   -2.57859171    0.35883686
C      0.62011903   -1.56991758   -0.32140367
C      0.29684186   -0.18126202    0.18544892
C     -0.04937707    0.86121779   -0.59421601
C     -0.34890357    2.26848534   -0.18410617
O     -0.08526214    2.45491985    1.20383034
H     -1.40071681    2.50112706   -0.37472698
H      0.28010796    2.96002227   -0.75335012
H     -0.19458981   -2.66860245    1.45339717
O      0.48017453   -1.65392278   -1.73954134
H      1.65379963   -1.82929257   -0.07171185
H     -0.27142827   -2.26252246   -1.89241588
O      7.57930266   -0.25993712    0.25981464
H     -0.11098196    0.69773123   -1.66947949
H      7.32625995   -0.41664822   -0.66234154
O      0.40658093   -0.03700915    1.56035130
H      7.37553831    0.67658533    0.40252691
H      0.22750788    0.91388591    1.75481263
H     -0.12269083    3.41733953    1.35480581