20

O     -2.91092411   -0.44295935    1.38075989
C     -1.94080291    0.04264946    0.79845047
C     -0.53015846   -0.54730590    0.85834423
C      0.43517462    0.35676011    0.13074446
C      1.23634520   -0.00558928   -0.87692407
C     -2.36937789    2.32119039    3.92541089
O     -1.35619093    1.96969043    3.00118018
H     -2.13660858    3.29138949    4.37111635
H     -3.32445751    2.38446077    3.39868437
H     -2.08269723    0.89785641    0.11567664
O     -0.48542067   -1.86843330    0.32784362
H     -0.23858201   -0.60177922    1.91298146
H     -1.13724014   -1.91339742   -0.39233561
O      2.07951120    0.89958305   -1.46982370
H      1.29329376   -1.00572559   -1.28779227
H      2.60717714    0.42146330   -2.13709937
O      0.48369202    1.66875183    0.58350263
H     -2.43493574    1.55694586    4.70371268
H      1.19063155    2.09812591    0.05567165
H     -0.52126777    1.92119668    3.49718014