20

O     -2.50395734    0.92722057    1.37634922
C     -1.58802980    0.13029630    1.55949085
C     -0.97401236   -0.75417548    0.48571316
C      0.01730576   -0.01983094   -0.39887875
C      1.48283751   -0.01275010   -0.01516712
C      0.70260616    1.26534350    0.01074481
O      7.20103984   -0.02987845    0.38086036
H      0.48783674    1.71266547    0.97288682
H      0.89855793    2.00227779   -0.76159567
H     -1.10915262    0.05025779    2.55089154
O     -2.01027270   -1.31835175   -0.31703798
H     -0.48427501   -1.59372563    0.99029804
H     -2.20639236   -0.63877093   -0.99191430
O      2.40208169   -0.14772623   -1.11342147
H      1.77832323   -0.42261019    0.94537132
H      2.76521962   -1.05097432   -1.15715075
O     -0.24585415   -0.12429210   -1.81980600
H      7.76685468    0.07006107   -0.39941309
H      0.58717771   -0.00485375   -2.31677373
H      6.30238083   -0.04018263    0.01855273
20

O     -2.77703241    0.57698946   -0.12354726
C     -1.83230026    0.60480850    0.66322134
C     -0.75930912   -0.47195009    0.70568227
C      0.38936695   -0.11412659   -0.21007924
C      1.36797061    0.89738174    0.30602532
C      0.27911353   -0.33707370   -1.70690851
O      6.99445854    0.14218672   -0.07618027
H     -0.65117037   -0.70402383   -2.12351909
H      0.83655079    0.30284727   -2.38038579
H     -1.68532817    1.45544062    1.34996469
O     -1.34430171   -1.72805329    0.35483708
H     -0.41977147   -0.56459858    1.74220074
H     -1.93704255   -1.55845300   -0.40079328
O      2.07041149    0.35124241    1.41307367
H      0.85566641    1.80542950    0.63758617
H      2.47765144   -0.47701352    1.09297871
O      1.02830898   -1.22598973   -0.86608380
H      6.58285455   -0.66219620   -0.42619637
H      2.10121587    1.18714283   -0.45425302
H      6.31513323    0.52000947    0.50237663
