20

O     -2.77703241    0.57698946   -0.12354726
C     -1.83230026    0.60480850    0.66322134
C     -0.75930912   -0.47195009    0.70568227
C      0.38936695   -0.11412659   -0.21007924
C      1.36797061    0.89738174    0.30602532
C      0.27911353   -0.33707370   -1.70690851
O      6.99445854    0.14218672   -0.07618027
H     -0.65117037   -0.70402383   -2.12351909
H      0.83655079    0.30284727   -2.38038579
H     -1.68532817    1.45544062    1.34996469
O     -1.34430171   -1.72805329    0.35483708
H     -0.41977147   -0.56459858    1.74220074
H     -1.93704255   -1.55845300   -0.40079328
O      2.07041149    0.35124241    1.41307367
H      0.85566641    1.80542950    0.63758617
H      2.47765144   -0.47701352    1.09297871
O      1.02830898   -1.22598973   -0.86608380
H      6.58285455   -0.66219620   -0.42619637
H      2.10121587    1.18714283   -0.45425302
H      6.31513323    0.52000947    0.50237663