20

O     -3.04293356    0.83120262    1.05815435
C     -2.12878842    0.36669338    0.38140596
C     -0.82950763   -0.18125313    0.96014401
C      0.36729547    0.27275561    0.14879157
C      0.67425551   -0.34770737   -1.19805435
C      1.59117261   -0.59132692   -0.03340346
O      7.37740843    0.14218672   -0.07618027
H      1.60235872   -1.58429660    0.40143298
H      2.56600264   -0.11815607   -0.05082799
H     -2.24437722    0.25667404   -0.71054390
O     -0.87475464   -1.60052702    1.08180384
H     -0.72760545    0.21885264    1.97516022
H     -1.10738736   -1.98043354    0.21914320
O      1.15643871    0.56835569   -2.19485082
H      0.09044768   -1.19105763   -1.54712512
H      1.23435288    1.46473993   -1.81203040
O      0.64234369    1.69133111    0.22813507
H      6.96580444   -0.66219620   -0.42619637
H      1.03068636    1.92415324    1.09266484
H      6.69808312    0.52000947    0.50237663
20

O     -1.99091858    0.06649667    2.45885165
C     -1.82889475   -0.11197166    1.25083083
C     -0.69076332   -0.92913508    0.58334713
C      0.48646391   -0.17268150   -0.09072401
C      0.58451738    1.32798466    0.15407069
C     -0.23594848   -0.54579261   -1.40275004
O      7.12798359    0.14218672   -0.07618027
H     -0.84626296    0.23243230   -1.87183367
H      0.38557511   -1.02870273   -2.16199771
H     -2.53681212    0.34822044    0.54082343
O     -1.06684578   -1.50843047   -0.70686018
H     -0.34552784   -1.72733767    1.25340041
H     -0.31761650    1.86385156   -0.15724736
O      1.68440613    1.84777364   -0.59187138
H      0.76349603    1.54353912    1.21222002
H      2.43714044    1.25551787   -0.38679077
O      1.81231982   -0.76183684    0.08184894
H      6.71637959   -0.66219620   -0.42619637
H      1.70567149   -1.69992770   -0.16531800
H      6.44865827    0.52000947    0.50237663
