20

O     -0.99577350   -0.17491277   -1.35696108
C     -0.66106601    0.57875929   -0.15081305
C     -0.04853927   -0.41598810    0.85861381
C      0.34547630   -1.50515079   -0.06952340
C     -0.22178072   -1.31435589   -1.25326717
C      0.32897321    1.68065781   -0.55236324
O      0.44516277    2.65476801    0.47713906
H     -0.00809015    2.17590200   -1.46949262
H      1.32467911    1.26853077   -0.75237173
H     -1.58388497    1.01982576    0.24460659
O     -1.00579813   -0.95337854    1.76937282
H      0.78288641    0.00404659    1.43065359
H     -1.72066354   -1.34183189    1.23169527
O      7.48211195   -0.02676673    0.10665056
H     -0.20550805   -1.94974190   -2.12142159
H      7.11950591    0.22047419   -0.75726483
O      1.08698047   -2.58045072    0.31563427
H      6.69776810   -0.19370745    0.65061427
H      1.17154908   -2.53910344    1.28725957
H      0.96539697    3.39242383    0.11123889