20

O     -2.52306748   -1.68956853    0.78691358
C     -1.49037698   -1.37525921    1.38043091
C     -0.09844221   -1.60650598    0.80285123
C      0.44690896   -0.28997362    0.30328786
C     -0.12183518    0.44156595   -0.67507977
C      0.33527900    1.75233617   -1.23381805
O      1.42102836    2.27085792   -0.47234938
H     -0.48763728    2.47319265   -1.20182646
H      0.66157127    1.62619922   -2.27028035
H     -1.52398472   -0.88191311    2.36654727
O     -0.12250768   -2.54861686   -0.26355357
H      0.52728047   -2.02009478    1.60044757
H     -1.01865092   -2.49576361   -0.64613602
O      7.69435591   -0.11879177   -0.30365612
H     -1.03129062    0.05974462   -1.13764733
H      6.91245852   -0.55816246    0.06315565
O      1.61198829    0.12150135    0.92689284
H      7.79255417    0.67695423    0.24050047
H      1.87453231    0.96966668    0.49947413
H      1.53920439    3.19263113   -0.76615443