20

O     -3.05789056    1.26090117    1.10719010
C     -2.01732637    0.72631067    0.79882987
C     -1.40734887   -0.67855578    0.79135778
C     -0.29498105    0.12597659    0.14962182
C      0.86764115   -0.24988177   -0.40557239
C      1.86949153    0.66657108   -1.02074337
O      3.16888226    0.15263362   -0.76977443
H      1.80901427    1.68221510   -0.61683161
H      1.72573878    0.70994260   -2.10391651
H     -0.48907812    1.59107399    3.12964277
O     -2.02815345   -1.66241134   -0.05972063
H     -1.21736061   -1.07160594    1.79457405
H     -2.93027561   -1.75754798    0.29372133
O      6.27237990   -4.09772779    0.10665056
H      1.09200191   -1.31311279   -0.43987920
H      5.90977386   -3.85048687   -0.75726483
O     -0.87031171    1.27443428    0.28736296
H      5.48803605   -4.26466851    0.65061427
H      0.22028593    1.53553881    2.92637327
H      3.29087835    0.13413047    0.19378025