20

O     -3.02560671   -0.76438793    0.77217233
C     -1.94740274   -0.27970786    1.10650006
C     -0.58436911   -0.89237713    0.81510550
C      0.14537165   -0.18181055   -0.30938353
C      1.29137245    0.75053785    0.03451095
C      0.03613677    1.30677065   -0.55977777
O      6.78566847   -0.14541384    0.05166929
H     -0.59605025    1.91837019    0.06996823
H      0.05695816    1.63824498   -1.59335434
H     -1.91554030    0.67819401    1.65325216
O     -0.71998475   -2.27746700    0.50328685
H     -0.00395749   -0.84123394    1.74222889
H     -1.18337176   -2.29898115   -0.35681406
O      2.42158556    0.68128949   -0.85181789
H      1.48596642    0.96124376    1.08136051
H      2.92712331    1.51415264   -0.83925471
O      0.33251895   -0.96663558   -1.51106891
H      7.08458681    0.49925086   -0.60712981
H      1.27924986   -0.94620244   -1.75691428
H      7.58673973   -0.35383702    0.55546052