20

O     -1.25605096    1.57429059    2.31669420
C     -1.59799767    0.95676830    1.30955818
C     -0.77707676   -0.12835446    0.51252388
C      0.01999470    0.44960705   -0.71026010
C      1.18859229   -0.49523286   -0.31360450
C      0.60706383   -0.51800065    1.11243242
O      6.99716272   -0.39562034   -0.00148413
H      0.64468100   -1.49427759    1.60487901
H      1.04422936    0.22776044    1.78646895
H     -2.58631973    1.16766301    0.86554849
O     -1.61548269   -1.26834986    0.15389372
H      6.20040100    0.12114676   -0.19405499
H     -1.82781962   -1.11265149   -0.78915801
O      2.51305896    0.05057922   -0.45689664
H      1.12808425   -1.47771239   -0.80051473
H      2.81152889   -0.22332097   -1.34152167
O     -0.59556564    0.20541426   -1.99870981
H      0.26362092    1.51476952   -0.60567296
H      0.03545890    0.57104786   -2.64566041
H      7.66881513    0.27447358    0.19553912