20

O     -2.38039084    1.79667078    0.73500433
C     -1.56224135    1.03037627    1.24472434
C     -0.75286332   -0.11018086    0.52178124
C      0.00660904    0.35395700   -0.77235848
C      1.20667039   -0.51416033   -0.30197490
C      0.64689859   -0.41706324    1.12887869
O      7.36207703    0.25755964   -0.18146835
H      0.71228146   -1.34287237    1.70835333
H      1.07373147    0.39748999    1.72576856
H     -1.34149139    1.12113900    2.32199162
O     -1.57774703   -1.29308174    0.31542097
H      6.85492575    0.38851734    0.63376699
H     -2.05857560   -1.08654013   -0.51218187
O      2.51447383    0.05229814   -0.50749028
H      1.17082997   -1.53979720   -0.69255702
H      2.77801978   -0.23585004   -1.39932827
O     -0.60424216   -0.03296924   -2.02658042
H      0.22497750    1.43010313   -0.77791789
H     -0.05694031    0.39048085   -2.71153395
H      7.14059832   -0.64607698   -0.45229864
20

O     -2.47510639    0.90932944   -0.01066763
C     -1.29584558    0.58655099    0.08655983
C     -0.74103329   -0.14811563    1.29909826
C     -0.22122585    0.79824228   -0.97290793
C      0.79930716   -0.26250378   -0.53816502
C      0.74590614   -0.23996929    0.98387765
O      6.95855224    0.25755964   -0.18146835
H      1.22348875   -1.12803621    1.41056719
H      1.28062974    0.63972683    1.36361881
H     -0.92181988    0.41574666    2.21818916
O     -1.29817613   -1.44423982    1.40840860
H      6.45140097    0.38851734    0.63376699
H     -2.26820685   -1.32521197    1.43691232
O      2.09778827    0.07469750   -1.01182891
H      0.53365155   -1.24809185   -0.94020162
H      2.70507623   -0.63146297   -0.72442655
O     -0.59019989    0.61846100   -2.32218321
H      0.18484728    1.80952008   -0.85686249
H      0.24091876    0.57535675   -2.82998847
H      6.73707353   -0.64607698   -0.45229864
