20

O     -1.16437887    1.79960981    2.13702591
C     -1.57883065    0.99836524    1.29856384
C     -0.76088333   -0.11479195    0.53933768
C     -0.00597840    0.40740035   -0.73394063
C      1.19110850   -0.49123821   -0.31562032
C      0.64369803   -0.45138529    1.12341964
O      6.85027460    0.33989949   -0.19843595
H      0.71009252   -1.40089653    1.66295673
H      1.08410941    0.33394844    1.74859706
H     -2.64073608    1.04037081    1.00224670
O     -1.58953334   -1.28514755    0.26460241
H      7.69239369   -0.07724574    0.03775530
H     -1.81330916   -1.19237667   -0.68434094
O      2.50071634    0.07091135   -0.51922713
H      1.14019555   -1.49893975   -0.74910596
H      2.76360699   -0.20342305   -1.41484942
O     -0.64836252    0.07631309   -1.98986564
H      0.21808370    1.48122835   -0.69685199
H     -0.04959870    0.43005159   -2.67294797
H      6.18174946   -0.26265375    0.16068065
20

O      0.75601728    2.19867073    1.08606693
C     -0.32589053    2.13972768    0.50389640
C     -0.67339922    1.08831690   -0.53056892
C      0.46480910    0.09203182   -0.76988163
C      0.82267653   -0.92546150    0.33581560
C      0.16094467   -1.94739247   -0.59701948
O      6.96191091    0.25755964   -0.18146835
H      0.78539573   -2.80251535   -0.86880715
H     -0.82952496   -2.29750293   -0.28996654
H     -1.11927487    2.88050190    0.70498503
O     -1.87438678    0.43821639   -0.10002608
H      6.45475963    0.38851734    0.63376699
H     -1.63538125   -0.13524966    0.65593351
O      0.22030878   -0.74556584    1.63836590
H      1.90263950   -1.08884160    0.43322584
H      0.82697929   -0.13375373    2.10244227
O      0.06893081   -0.98187785   -1.67173563
H      1.35039076    0.60282176   -1.17070490
H     -0.90123480    1.61787376   -1.46202114
H      6.74043219   -0.64607698   -0.45229864
