20

O     -2.78798086    1.16335459    1.11624144
C     -1.58745783    0.93629777    1.27008245
C     -0.73144176   -0.15401120    0.51948994
C     -0.01268785    0.38243680   -0.76973926
C      1.22171650   -0.46456562   -0.35157299
C      0.69264563   -0.41284187    1.09473169
O      6.88514171    0.33989949   -0.19843595
H      0.80631999   -1.34641276    1.65442669
H      1.10258104    0.40527498    1.69786944
H     -1.01782387    1.53956900    1.99750703
O     -1.49514783   -1.37794666    0.31340201
H      7.72726080   -0.07724574    0.03775530
H     -2.21862068   -1.09581468   -0.28102430
O      2.50678197    0.14737014   -0.57198983
H      1.20547424   -1.48123539   -0.76613570
H      2.78925185   -0.16449062   -1.44996521
O     -0.62635745    0.04836345   -2.03485920
H      0.17882529    1.46339549   -0.72893040
H     -0.02607835    0.41125658   -2.70953380
H      6.21661657   -0.26265375    0.16068065
20

O     -2.37769481   -0.56397875    1.92509051
C     -1.66031340    0.29229342    1.40967341
C     -0.57975037    0.11628935    0.27172895
C     -0.89833093    1.02476785   -0.92436149
C      0.98793797   -1.23644657    0.06400594
C      0.88616563    0.11891820    0.76392185
O      7.12557195    0.25755964   -0.18146835
H      1.01654452    0.07084892    1.84940235
H      1.52449391    0.91086083    0.36282927
H     -1.73733520    1.33061089    1.77678353
O     -0.43030359   -1.26472819   -0.18672660
H      6.61842067    0.38851734    0.63376699
H     -1.86036827    0.75449188   -1.37245016
O      1.73894680   -1.26340608   -1.15601618
H      1.28453661   -2.05779928    0.72487049
H      2.66900294   -1.22708539   -0.87633320
O      0.10295733    0.93800350   -1.93793542
H     -0.95197806    2.07163533   -0.60923339
H      0.28548891   -0.01527589   -2.08524984
H      6.90409323   -0.64607698   -0.45229864
