20

O      1.06603349    2.25662363   -1.81394910
C      1.87944504    1.62329141   -1.16073964
C     -1.55617907   -1.62974277   -0.07003562
C     -0.37955796   -0.72882522    0.21153354
C     -0.53248081    0.56147217    0.56236664
C      0.52834908    1.60533230    0.76579914
O      1.76338765    1.23455029    0.13759824
H      0.72170209    1.71686835    1.83793313
H      0.18249567    2.58158669    0.40535479
H      2.84673284    1.27077429   -1.55092707
O     -1.29456345   -2.95646041    0.36769511
H     -2.45725642   -1.28513188    0.44696984
H     -1.86792495   -3.53701431   -0.15815505
O      7.94910865   -0.02676673    0.10665056
H     -1.54602321    0.94531748    0.66706163
H      7.58650261    0.22047419   -0.75726483
O      0.86498125   -1.31328160    0.06685350
H      7.16476480   -0.19370745    0.65061427
H      1.52983179   -0.70310827    0.43266026
H     -1.74897304   -1.64225214   -1.14801934