20

O     -3.07119347   -0.71714618    1.00281911
C     -2.06353789   -0.01522878    1.08628133
C     -0.66623775   -0.56482381    0.83894929
C      0.29272589    0.50377390    0.41116120
C      1.39365514    0.28090784   -0.58060079
C      0.22626417    1.13548372   -0.95965731
O      7.56667221    0.14218672   -0.07618027
H      0.39331348    2.20372867   -1.03586777
H     -0.47054522    0.74213913   -1.68951932
H     -2.12644932    1.03669624    1.41128847
O     -0.73535444   -1.62204233   -0.12056124
H     -0.31341334   -0.99215927    1.78378983
H     -1.54561437   -2.12509947    0.10707420
O      2.61768471    0.95282683   -0.33299651
H      0.52844610    1.16084350    1.24353429
H      3.31746805    0.49119816   -0.82660353
O      1.51529874   -0.96700835   -1.24336474
H      7.15506821   -0.66219620   -0.42619637
H      0.70748954   -1.50408981   -1.09572651
H      6.88734689    0.52000947    0.50237663