20

O     -1.61692341   -0.44854988    2.72357828
C     -1.67179260   -0.51891545    1.49905955
C     -0.55073295   -1.06442674    0.63399313
C     -0.02220747   -0.01926207   -0.32123499
C      1.41071547    0.45428973   -0.20756132
C      0.28745871    1.39059943    0.11935709
O      7.29897064   -0.25911128   -0.22059204
H      0.14516907    1.66282973    1.15883817
H      0.06689726    2.19440949   -0.57463837
H     -2.55365400   -0.14315568    0.95200288
O     -1.05821049   -2.16706359   -0.12181921
H      0.23955187   -1.44721633    1.28775284
H     -1.32047007   -1.79002637   -0.98633335
O      2.06724467    0.69280764   -1.46616404
H      2.01088267    0.08177475    0.61684157
H      2.86498310    1.23896515   -1.34220805
O     -0.52037851   -0.14369503   -1.67653753
H      7.09918494    0.66787728   -0.41993818
H      0.22146667    0.02663521   -2.29492667
H      6.88060127   -0.40876600    0.64053021