20

O     -2.40104978    0.47601218    1.68664195
C     -1.89348920   -0.10226276    0.72715390
C     -0.45206191   -0.59029194    0.71137410
C      0.26966897    0.06399585   -0.43560591
C      1.37720476    0.80085754   -0.29926604
C      7.81602321    0.34886638    0.00305756
O      7.72102991   -1.05850230   -0.11774055
H      8.49731627    0.73570512   -0.75872767
H      6.82515255    0.78566104   -0.14187955
H     -2.48818140   -0.33243507   -0.17441100
O     -0.38978797   -2.00239181    0.57146333
H      0.01379148   -0.32285897    1.66692552
H     -0.77073639   -2.38033143    1.38230198
O      1.98700456    1.37189063   -1.38723413
H      1.87231190    0.99564069    0.64322814
H      2.79791657    1.81731280   -1.07831180
O     -0.27293542   -0.11892229   -1.70075009
H      8.18291915    0.60599137    0.99974974
H      0.35034383    0.32378457   -2.31350997
H      8.61470877   -1.41772162    0.01554047
20

O     -2.75803662   -0.97731451    1.70189698
C     -1.52645211   -0.95644133    1.70772134
C     -0.67131654   -0.08782536    0.80222160
C      0.97206425    0.53255174   -1.63198322
C      0.28572249   -0.56673385   -1.30591510
C      8.03919129    0.26657004   -0.20072831
O      7.23351538   -0.87736993    0.01511902
H      9.06224712    0.05905664    0.12240651
H      8.03770764    0.50628478   -1.26663434
H     -0.95913325   -1.62259315    2.38001648
O      0.25786977    0.57228884    1.64125898
H     -1.31153777    0.62075687    0.26125832
H      1.09037564    0.51552160    1.13602344
O     -0.02308181   -1.02915302   -0.05634317
H     -0.04876406   -1.27670402   -2.05368378
H      1.18706831    0.79789468   -2.66102811
O      1.51837482    1.38667384   -0.71688002
H      7.63246755    1.11106621    0.36098618
H      1.98684689    2.09107767   -1.20456374
H      7.25415992   -1.06560775    0.96885094
