20

O     -0.36277733    0.32338033   -2.66259239
C     -1.27140282    0.66952396   -1.92572078
C     -1.63019895    0.08010222   -0.59559294
C     -0.44106185   -0.59668187    0.08749069
C      0.75917824    0.34864251    0.32659652
C      1.87433439   -0.28626109    1.17045004
O      2.20573128   -1.58861529    0.70877928
H      1.57956525   -0.35360403    2.22362741
H      2.76863204    0.34614153    1.13086526
H     -2.04366630    0.86164079    0.05256943
O     -2.12122846    1.64696431   -2.29646410
H     -2.43117413   -0.65223560   -0.75277992
H     -1.78429619    1.94884187   -3.16549545
O      0.31817016    1.53871836    0.99333328
H      1.18611105    0.64701628   -0.63625638
H     -0.27855665    1.24097474    1.70800468
O     -0.91753382   -1.06844937    1.36268329
H     -0.12872292   -1.46953931   -0.49836831
H     -0.31833788   -1.79531219    1.62011016
H      3.03723488   -1.84124816    1.14876019
20

O     -1.97998806   -1.00361328   -1.18185988
C     -2.15455642   -0.86852849    0.01610038
C     -1.13858549   -0.53057559    1.07070628
C     -0.02660628    0.40363659    0.58384540
C      0.91154211   -0.26824663   -0.43230529
C      2.10275221    0.58891486   -0.85180797
O      2.97628538   -0.16948966   -1.68444793
H      2.68184994    0.92770516    0.01168804
H      1.78242993    1.46848278   -1.41859306
H     -1.67388888   -0.03996041    1.89473564
O     -3.37001478   -1.11415329    0.55125446
H     -0.72305238   -1.46198721    1.47156342
H     -3.93124086   -1.33509815   -0.22187740
O     -0.59980719    1.59868383    0.09389902
H      0.37337619   -0.54362685   -1.34468852
H      0.13173814    2.16021705   -0.20908739
O      0.75123382    0.79965275    1.70730232
H      1.30161193   -1.20322257   -0.00892212
H      0.12538541    1.08156705    2.39602592
H      2.45953529   -0.49035793   -2.44353132
