20

O     -0.36277733    0.32338033   -2.66259239
C     -1.27140282    0.66952396   -1.92572078
C     -1.63019895    0.08010222   -0.59559294
C     -0.44106185   -0.59668187    0.08749069
C      0.75917824    0.34864251    0.32659652
C      1.87433439   -0.28626109    1.17045004
O      2.20573128   -1.58861529    0.70877928
H      1.57956525   -0.35360403    2.22362741
H      2.76863204    0.34614153    1.13086526
H     -2.04366630    0.86164079    0.05256943
O     -2.12122846    1.64696431   -2.29646410
H     -2.43117413   -0.65223560   -0.75277992
H     -1.78429619    1.94884187   -3.16549545
O      0.31817016    1.53871836    0.99333328
H      1.18611105    0.64701628   -0.63625638
H     -0.27855665    1.24097474    1.70800468
O     -0.91753382   -1.06844937    1.36268329
H     -0.12872292   -1.46953931   -0.49836831
H     -0.31833788   -1.79531219    1.62011016
H      3.03723488   -1.84124816    1.14876019