20

O     -2.26001109   -0.68534252    1.69878880
C     -1.03004789   -0.70505586    1.67690708
C     -0.23078537   -1.29518931    0.52843873
C      0.47495913   -0.26795777   -0.32955187
C      0.50922987    1.21915020   -0.01492037
C     -0.32245232    0.71411537   -1.15537278
O      7.21496632   -0.25911128   -0.22059204
H     -1.40074892    0.72659791   -1.04340346
H      0.00893208    0.90135352   -2.17011375
H     -0.43720069   -0.26955310    2.49869242
O     -1.08081145   -2.10058005   -0.29175402
H      0.50978327   -1.96530542    0.97839703
H     -1.99172931   -1.78134242   -0.14129023
O      1.73401808    1.88026022   -0.38638042
H     -0.01904472    1.60283935    0.84992022
H      1.57308863    2.81663359   -0.60331417
O      1.67255410   -0.76613842   -0.97117909
H      7.01518061    0.66787728   -0.41993818
H      2.29026661   -0.02448532   -1.12386412
H      6.79659694   -0.40876600    0.64053021
20

O     -2.58201377    1.23105929   -0.13824520
C     -1.52413947    1.55991704    0.38390326
C     -0.01327375   -1.08251992    0.62582854
C      0.52244455    0.07349577   -0.18490549
C     -0.22936399    1.37888139   -0.31000654
C     -0.11410988    0.44344433   -1.49435687
O      7.27076667    0.14218672   -0.07618027
H     -0.99385393   -0.10677857   -1.81054640
H      0.53237720    0.74026033   -2.31160954
H     -1.48034438    1.98516814    1.39961915
O      0.43953661   -2.28671490    0.04134176
H     -1.10555156   -1.09437224    0.68686607
H     -0.11475039   -2.97539917    0.44598493
O      0.53115715   -1.02106476    1.92786061
H      0.37274776    2.28083354   -0.34286784
H      1.44099081   -0.69426196    1.79786377
O      1.96504631    0.18455946   -0.15636295
H      6.85916267   -0.66219620   -0.42619637
H      2.35310074   -0.61650779   -0.56036724
H      6.59144135    0.52000947    0.50237663
