20

O     -2.26001109   -0.68534252    1.69878880
C     -1.03004789   -0.70505586    1.67690708
C     -0.23078537   -1.29518931    0.52843873
C      0.47495913   -0.26795777   -0.32955187
C      0.50922987    1.21915020   -0.01492037
C     -0.32245232    0.71411537   -1.15537278
O      7.21496632   -0.25911128   -0.22059204
H     -1.40074892    0.72659791   -1.04340346
H      0.00893208    0.90135352   -2.17011375
H     -0.43720069   -0.26955310    2.49869242
O     -1.08081145   -2.10058005   -0.29175402
H      0.50978327   -1.96530542    0.97839703
H     -1.99172931   -1.78134242   -0.14129023
O      1.73401808    1.88026022   -0.38638042
H     -0.01904472    1.60283935    0.84992022
H      1.57308863    2.81663359   -0.60331417
O      1.67255410   -0.76613842   -0.97117909
H      7.01518061    0.66787728   -0.41993818
H      2.29026661   -0.02448532   -1.12386412
H      6.79659694   -0.40876600    0.64053021