20

O      0.55680065   -3.08992403    2.06516796
C      0.05206573   -1.99225181    1.82544621
C      0.31211695   -1.25063208    0.52708003
C      0.31385419    0.28182204    0.68730429
C     -0.59840878    1.07808996   -0.26893235
C     -0.34547676    0.86727116   -1.76390057
O      1.05743391    0.92048196   -2.02184878
H     -0.80793839    1.67549077   -2.34094520
H     -0.74940397   -0.07733794   -2.13563820
H     -0.73138036   -1.57966447    2.48300907
O     -0.65680804   -1.71671827   -0.41393958
H      1.29420964   -1.55934223    0.14858491
H     -0.53711360   -2.68600260   -0.46781434
O     -0.36354978    2.47588075    0.03904760
H     -1.65268343    0.89775634   -0.03264506
H      0.41817396    2.73611304   -0.48925830
O     -0.03480703    0.67660681    2.03064644
H      1.34842024    0.63053111    0.57174711
H     -0.17540435    1.64678075    1.97872930
H      1.29989922    0.06504873   -2.42184053
20

O     -2.69076245   -0.92428292    2.30591603
C     -1.96660823   -0.49744939    1.43578470
C     -0.82871133    0.54792275    1.32515910
C     -0.81294689    0.08769107   -0.14433752
C      0.43755176   -0.60105678   -0.68954777
C      1.60617158    0.38383979   -0.78272740
O      1.28300253    1.44093283   -1.68690320
H      2.49170089   -0.11969761   -1.18447146
H      1.86643722    0.82331353    0.18259610
H     -1.00998944   -3.18526569    2.18331959
O      0.33324665    0.29066052    2.15094449
H     -1.18311872    1.57463448    1.46293284
H      0.00153911    0.36197574    3.06611759
O      0.15738373   -1.07411253   -2.01786505
H      0.71080310   -1.46033774   -0.06633839
H      0.76174698   -1.81760968   -2.19336168
O     -1.87359035   -0.88271491    0.14024160
H     -1.19326275    0.85834088   -0.82858474
H     -1.07201181   -3.55482278    1.54521241
H      0.89941719    1.00794995   -2.47555526
