20

O     -2.50792968   -0.04710201    2.14103042
C     -1.28245396   -0.08550389    2.01619723
C     -0.58032841   -0.71732948    0.81985802
C      0.18608417    0.30271590    0.00991033
C      0.70681481   -0.06923297   -1.36469267
C      1.66651850    0.14135283   -0.23413211
O      7.44086533   -0.25911128   -0.22059204
H      2.17145592   -0.73060572    0.16247181
H      2.27827363    1.03628379   -0.24565788
H     -0.61785782    0.28207995    2.81563591
O     -1.50459687   -1.39972644   -0.02749205
H      0.09699203   -1.47753450    1.22359628
H     -2.28912300   -1.59023991    0.52291690
O      0.65541572    0.99111182   -2.33953933
H      0.52812990   -1.08353814   -1.70826862
H      1.15803334    0.74899388   -3.13755584
O     -0.27078673    1.66780691    0.12337608
H      7.24107962    0.66787728   -0.41993818
H     -0.39464156    2.03046798   -0.77765452
H      7.02249596   -0.40876600    0.64053021
20

O     -2.68330030   -0.51641520    0.32488187
C     -1.73544114   -0.38040666    1.09931570
C     -0.36148272   -0.99538109    0.84304346
C      0.60168222   -0.00311642    0.23547570
C      0.30154860    0.43948406   -1.17649904
C      1.69028014    0.40793065    0.91717259
O      7.53354343    0.14218672   -0.07618027
H      1.91436237    0.05730136    1.91938967
H      2.40690167    1.09421458    0.47115334
H     -1.84216357    0.17675433    2.04498662
O     -0.46190058   -2.12894533   -0.01003811
H      0.00020942   -1.36138783    1.81085326
H     -1.29077116   -2.01321226   -0.51759259
O      1.41959493    1.05608875   -1.77767250
H     -0.00222703   -0.40432828   -1.80403363
H      1.19504852    1.09708354   -2.72200287
O     -0.71646034    1.40968912   -1.15884093
H      7.12193943   -0.66219620   -0.42619637
H     -0.43588103    2.06464671   -0.49959257
H      6.85421811    0.52000947    0.50237663
