20

O     -2.50792968   -0.04710201    2.14103042
C     -1.28245396   -0.08550389    2.01619723
C     -0.58032841   -0.71732948    0.81985802
C      0.18608417    0.30271590    0.00991033
C      0.70681481   -0.06923297   -1.36469267
C      1.66651850    0.14135283   -0.23413211
O      7.44086533   -0.25911128   -0.22059204
H      2.17145592   -0.73060572    0.16247181
H      2.27827363    1.03628379   -0.24565788
H     -0.61785782    0.28207995    2.81563591
O     -1.50459687   -1.39972644   -0.02749205
H      0.09699203   -1.47753450    1.22359628
H     -2.28912300   -1.59023991    0.52291690
O      0.65541572    0.99111182   -2.33953933
H      0.52812990   -1.08353814   -1.70826862
H      1.15803334    0.74899388   -3.13755584
O     -0.27078673    1.66780691    0.12337608
H      7.24107962    0.66787728   -0.41993818
H     -0.39464156    2.03046798   -0.77765452
H      7.02249596   -0.40876600    0.64053021