20

O     -1.93616195   -2.37757724    1.73342374
C     -0.78357146   -1.97523059    1.57989747
C     -0.12058758   -1.71910464    0.22632828
C     -0.10607377   -0.23439696   -0.04920069
C      1.01715326    0.48264235   -0.23846422
C      1.13187776    1.93551770   -0.59046271
O     -0.15462081    2.54127434   -0.66194503
H      1.62011020    2.04054469   -1.56437727
H      1.72265866    2.46038531    0.16581643
H     -0.14262144   -1.77791304    2.45576687
O     -0.81946573   -2.35526789   -0.83432606
H      0.88735877   -2.14468822    0.26506073
H     -1.70372793   -1.93813957   -0.82520116
O      7.55991770   -0.36545960    0.08881824
H      1.97421003   -0.03151894   -0.17046898
H      7.86057310    0.21738187   -0.62452820
O     -1.36038671    0.34162699   -0.16168997
H      6.87033217    0.14807773    0.53570996
H     -1.21904014    1.29468978   -0.36870874
H     -0.00711118    3.45715592   -0.96144871