20

O      0.21236744   -0.67923733   -2.50990907
C     -0.38326166   -1.18412889   -1.57427794
C     -1.47790043   -0.54936630   -0.78166811
C     -1.02421539    0.41308164    0.31112818
C      0.37293026    1.06934023    0.19895806
C      1.56861970    0.14760202    0.47347432
O      1.32883936   -0.60100933    1.66455162
H      2.47316724    0.74103044    0.64358598
H      1.76514519   -0.54498643   -0.34528332
H     -2.14326929   -0.05108177   -1.49833836
O     -0.03404307   -2.40179151   -1.12141662
H     -2.09938286   -1.33902958   -0.33936335
H      0.66832553   -2.69723970   -1.73880344
O      0.39937897    2.11310791    1.20715333
H      0.48784276    1.57944202   -0.76295610
H      0.53986272    1.65002049    2.05781674
O     -1.99898463    1.48303480    0.34548278
H     -1.11694075   -0.07916945    1.28638083
H     -1.54191931    2.23338887    0.78112990
H      2.00343824   -1.30300813    1.70235458