20

O     -1.95283982    1.44213023    1.70700482
C     -1.65572733    0.73352467    0.74581197
C     -0.72259957   -0.47102334    0.83968180
C      0.62289113   -0.18218911    0.21998232
C      0.83184527    0.34167080   -0.99885344
C     -5.28279247    0.30639965    0.51766605
O     -0.18357255    0.61294900   -1.86668105
H     -5.47111244   -0.40878412   -0.28604239
H     -4.73468002    1.16380430    0.12101818
H     -2.06905870    0.94711170   -0.25347350
O     -1.28257319   -1.63598352    0.24777142
H     -0.58453346   -0.68453177    1.90704093
H     -2.04854471   -1.88325180    0.79372932
O      2.09352911    0.64983821   -1.43940804
H     -4.69135359   -0.17323785    1.30063949
H      2.62614424    0.82199413   -0.63959230
O      1.71640002   -0.54101869    1.00517468
H     -6.23402379    0.64381629    0.93504891
H      2.33016671   -1.02235100    0.41753774
H      0.27847287    0.87113050   -2.68572665