20

O     -2.84225624    1.10821486    0.83668449
C     -1.66905745    1.45848589    0.89456765
C     -0.54151621    0.51059957    0.73035562
C      0.13401414    0.48709025   -0.62078955
C      1.06375646   -0.73295777   -0.92732615
C     -0.25685740   -0.20099352    1.83313419
O      7.38164028    0.25755964   -0.18146835
H      0.56267787   -0.91227544    1.86420398
H     -0.82899535   -0.08527428    2.75079323
H     -1.37381807    2.49916277    1.10505396
O      0.41757164   -1.98888568   -0.81146351
H      6.87448901    0.38851734    0.63376699
H     -0.41257404   -1.84756057   -0.32163624
O      2.20732921   -0.74151065   -0.09781541
H      1.40221180   -0.65530842   -1.96668730
H      2.75136252   -1.46956957   -0.44575286
O     -0.88740189    0.54680497   -1.62474408
H      0.72977641    1.40436119   -0.70536103
H     -0.45622341    0.61961639   -2.49321698
H      7.16016157   -0.64607698   -0.45229864