20

O     -0.60669353   -2.29932399    1.87246169
C     -0.52504276   -2.42639908    0.65005913
C      0.48507880   -1.69178570   -0.22281903
C      0.13574108   -0.22109638   -0.31615735
C      0.18211631    0.63101110    0.72401316
C     -0.13698067    2.09121110    0.71031911
O      0.07328195    2.61750621   -0.59676998
H      0.51061141    2.62216492    1.41482339
H     -1.18151354    2.25595871    0.99088562
H     -1.23194588   -3.07872249    0.11030759
O      0.48330719   -2.27078380   -1.52789905
H      1.48494565   -1.83333308    0.19908561
H      0.04688142   -1.60575251   -2.09956987
O      7.79910325    0.00058797    0.18234835
H      0.46094993    0.23773787    1.70127941
H      6.95183843   -0.32211024    0.52435593
O     -0.22664846    0.21131892   -1.58612719
H      7.58568440    0.32152226   -0.70670428
H     -0.23363450    1.19751509   -1.54855933
H      0.27954560    3.56277313   -0.47533290
20

O     -2.92863733    0.91351016    1.69043431
C     -2.65128768    0.16504367    0.75484053
C     -1.39683032   -0.70240913    0.70267651
C     -0.21504081    0.11890171    0.28034833
C      0.95146525   -0.39153585   -0.15907769
C      2.15512421    0.39269666   -0.57130014
O      2.20378385    1.62959011    0.09722689
H      3.06903126   -0.16986927   -0.35460859
H     -0.31326561    1.20211624    0.35262539
H     -3.29147310    0.12978287   -0.14273227
O     -1.57570433   -1.78102444   -0.20334195
H     -1.22254234   -1.10681119    1.70566420
H     -2.16604542   -2.42247703    0.22762110
O      7.91570640   -0.02676673    0.10665056
H      1.06394304   -1.47183352   -0.22304333
H      7.55310036    0.22047419   -0.75726483
O      2.07927860    0.65866883   -1.95042589
H      7.13136255   -0.19370745    0.65061427
H      1.14417712    0.86536141   -2.11862704
H      3.09402361    1.97028876   -0.08828037
