20

O     -2.29654047    0.86827811    2.26630482
C     -1.59489022    1.00494717    1.26352190
C     -0.78038316   -0.10654767    0.48613606
C      0.04243727    0.42603000   -0.74185600
C      1.18840990   -0.52613226   -0.29949112
C      0.59153346   -0.48027393    1.12187352
O      7.19878106    0.10176986   -0.35510899
H      0.61474768   -1.43390623    1.65772326
H      1.01962107    0.29410147    1.76918042
H     -1.50076666    2.01299926    0.82533855
O     -1.60725743   -1.26347466    0.16166579
H      6.31592836    0.28619522   -0.00082182
H     -2.06159422   -1.00554106   -0.66317314
O      2.52193001   -0.00190165   -0.44418621
H      1.11718796   -1.52489279   -0.75022721
H      2.85570595   -0.37540447   -1.27890816
O     -0.55296813    0.17967563   -2.03675850
H      0.31377994    1.48653621   -0.65737766
H      0.12904706    0.44550691   -2.67976630
H      7.63871641   -0.38796507    0.35593080
20

O     -1.13802378    1.48459522    2.05378659
C     -0.39515790    1.44622456    1.07832977
C     -0.07990667    0.15797321    0.37920652
C     -0.20998092    0.20838459   -1.14411488
C      1.14865787    0.12231307   -0.52349208
C     -0.34187868   -1.11861788    1.16018149
O      7.20846666    0.25755964   -0.18146835
H      0.48598647   -1.82787483    1.05763234
H     -0.43973186   -0.91392459    2.23157597
H      0.04481212    2.36796699    0.66234174
O     -1.52942007   -1.78080989    0.73971541
H      6.70131538    0.38851734    0.63376699
H     -2.18797979   -1.09559179    0.53876811
O      1.94398202    1.31873152   -0.59046184
H      1.67097394   -0.82461507   -0.63534555
H      2.87115274    1.11173684   -0.81000252
O     -0.65242747   -0.97409400   -1.82460410
H     -0.49561231    1.15961404   -1.58583211
H     -0.69544569   -0.84201195   -2.78768488
H      6.98698794   -0.64607698   -0.45229864
