20

O     -2.29654047    0.86827811    2.26630482
C     -1.59489022    1.00494717    1.26352190
C     -0.78038316   -0.10654767    0.48613606
C      0.04243727    0.42603000   -0.74185600
C      1.18840990   -0.52613226   -0.29949112
C      0.59153346   -0.48027393    1.12187352
O      7.19878106    0.10176986   -0.35510899
H      0.61474768   -1.43390623    1.65772326
H      1.01962107    0.29410147    1.76918042
H     -1.50076666    2.01299926    0.82533855
O     -1.60725743   -1.26347466    0.16166579
H      6.31592836    0.28619522   -0.00082182
H     -2.06159422   -1.00554106   -0.66317314
O      2.52193001   -0.00190165   -0.44418621
H      1.11718796   -1.52489279   -0.75022721
H      2.85570595   -0.37540447   -1.27890816
O     -0.55296813    0.17967563   -2.03675850
H      0.31377994    1.48653621   -0.65737766
H      0.12904706    0.44550691   -2.67976630
H      7.63871641   -0.38796507    0.35593080