20

O     -1.50387999    1.22528838    2.50108108
C     -1.60220885    0.94819332    1.30617010
C     -0.79041791   -0.13083836    0.49155519
C      0.03960861    0.46465698   -0.70056036
C      1.18534737   -0.50812521   -0.30659614
C      0.57524729   -0.55888955    1.10661801
O      1.96314453    2.97837822   -2.61195046
H      0.58648950   -1.54866571    1.57302251
H      1.00765519    0.16189019    1.81027520
H     -2.32193567    1.51068894    0.68693300
O     -1.64003455   -1.24807812    0.09309544
H      2.65707769    3.31929215   -3.19606986
H     -1.85980202   -1.05296113   -0.84031780
O      2.51923841    0.02425940   -0.40767236
H      1.12134827   -1.47628643   -0.82085030
H      2.83330297   -0.23092395   -1.29256157
O     -0.55378654    0.27065729   -2.00689096
H      0.30005977    1.52198578   -0.56113445
H      0.10376815    0.62714818   -2.63216658
H      1.81332010    3.69863837   -1.98128497