20

O     -2.89332116   -1.18893591   -0.75437792
C     -2.14832574   -0.31263442   -0.35138808
C     -1.18330740    0.47428252   -1.19141306
C      0.27229605    0.08203945   -0.94333988
C      0.93959995    0.69478024    0.32624266
C      1.59182095   -0.29511573    1.30674174
O      2.66848198   -1.03631535    0.74636513
H      0.84810721   -0.99478249    1.70252365
H      1.98565802    0.25330760    2.17063417
H     -1.43873102    0.24710826   -2.23475048
O     -2.16468616    0.05348639    0.94602996
H     -1.36329368    1.54641289   -1.06201548
H     -2.86614353   -0.52308830    1.32486055
O      0.05879534    1.56371370    1.04523459
H      1.73961000    1.35078402   -0.04060652
H     -0.68168797    1.01784254    1.38386365
O      0.40176360   -1.33629175   -1.00236790
H      0.85338235    0.46079052   -1.79487999
H      0.11269322   -1.64280682   -1.88012860
H      3.26728799   -0.41457734    0.30277179