20

O     -2.34977464    1.81467636    0.83329322
C     -1.62006384    0.91516163    1.25221888
C     -0.82374021   -0.13550821    0.39134344
C      0.14525087    0.50260570   -0.66684962
C      1.19086381   -0.57488617   -0.26744894
C      0.44422763   -0.72938680    1.07007552
O      7.01804314    0.37070671   -0.08404125
H      0.34596783   -1.76128674    1.42075561
H      0.85192888   -0.12251669    1.88692093
H     -1.48045775    0.80172171    2.34071802
O     -1.71477253   -1.14175382   -0.17046403
H      6.14222377   -0.02233332   -0.21602982
H     -2.07488258   -0.69987496   -0.96643735
O      2.55609747   -0.12545739   -0.17815178
H      1.12818071   -1.48076376   -0.88478428
H      2.91289506   -0.21875965   -1.07914227
O     -0.31555591    0.46537319   -2.03857585
H      0.45296795    1.52322941   -0.40323782
H      0.35086727    0.96742619   -2.54023366
H      7.54182032   -0.34837339    0.30007108