20

O     -3.11061130    0.23988206    0.94630294
C     -2.16979471    0.13076300    0.16217546
C     -0.85001275   -0.51303129    0.54437224
C      0.29267622    0.05575167   -0.25354353
C      1.61916340    0.33877951    0.41371988
C      0.75151252    1.47444772   -0.04980753
O      7.41157389    0.14218672   -0.07618027
H      0.27555273    2.07916945    0.71327002
H      1.07077877    2.03918525   -0.91823630
H     -2.28596581    0.40393700   -0.90055844
O     -0.92908350   -1.91289810    0.26504764
H     -0.69021289   -0.37878689    1.61993062
H     -1.61934178   -2.26604261    0.85825637
O      2.78641014    0.09206522   -0.38910481
H      1.70952853    0.18199431    1.48312631
H      2.52153795   -0.08577563   -1.31236899
O      0.39567383   -0.45671870   -1.60295685
H      6.99996990   -0.66219620   -0.42619637
H      0.23218865   -1.42272194   -1.57962504
H      6.73224858    0.52000947    0.50237663
20

O     -2.51636280   -0.03951371   -0.09028310
C     -1.49932550    0.08194233    0.57157994
C     -0.49779199   -1.03896388    0.82257933
C     -0.14076903    0.16316323    0.13256687
C      0.80585406    1.26439300    0.21035077
C      0.42213685    0.61650447   -1.13279043
O      6.83561226    0.14218672   -0.07618027
H     -0.21554353    1.18087036   -1.80288239
H      1.14874476   -0.01434444   -1.62808161
H     -1.87885673   -1.05240532   -3.26347815
O     -0.72213176   -2.22251796    0.02410814
H     -0.20514413   -1.15869996    1.85731952
H     -1.55478939   -2.13247677   -0.48347345
O      2.12347211    0.96141924    0.69297769
H      0.42210300    2.26091720    0.40435378
H      2.42954735    0.07730688    0.42167494
O     -0.94120177   -1.26881174   -3.37719901
H      6.42400826   -0.66219620   -0.42619637
H     -0.92904288   -2.23627946   -3.43029677
H      6.15628694    0.52000947    0.50237663
