20

O      0.01263950    3.16299188    1.44083204
C     -0.69070759    2.15620371    1.41438660
C     -0.18067635    0.77168890    1.06190007
C      0.03358753    0.63735376   -0.47740292
C     -0.24203599   -0.77647558   -1.01369761
C      0.64101747   -1.85719196   -0.40495426
O      0.34452740   -3.09750443   -1.03864921
H      0.46244363   -1.97292820    0.66719695
H      1.70125174   -1.63995723   -0.56583712
H     -1.78023870    2.23474078    1.57644180
O     -1.13984797   -0.15946117    1.57895802
H      0.76224429    0.60048438    1.59365542
H     -1.04250983   -0.17381820    2.54807000
O     -0.78905159    1.52999603   -1.21734888
H     -0.09717838   -0.78794532   -2.10350389
H     -0.42705150    2.41872777   -1.03880222
O      1.36547938    1.01047591   -0.80616664
H     -1.30043548   -1.03738360   -0.88269662
H      1.49455003    0.76278380   -1.73869770
H      0.87199238   -3.78278124   -0.59368382
20

O     -0.10304983    2.03116062    0.61231598
C     -0.43424220    0.93542300    0.16815010
C      0.51688441   -0.23229846    0.01480682
C     -1.55488587   -3.31557089   -2.71812019
C     -3.00172228   -3.25770610   -2.34110039
C     -3.83251990   -4.10716304   -3.28040441
O     -5.20353031   -4.06240086   -2.89953265
H     -3.50292485   -5.15178955   -3.27577068
H     -3.75954232   -3.74258438   -4.31015645
H     -1.44354446    0.78212398   -0.24871287
O     -0.12910136   -1.47149660    0.25318745
H      1.33531874   -0.12362075    0.73157570
H     -0.66324192   -1.68911680   -0.52990962
O     -0.67090258   -3.87100482   -2.08770982
H     -3.33883707   -2.21529445   -2.33650553
H      0.92097663   -0.23217500   -1.00141357
O     -1.28140503   -2.66930572   -3.86561191
H     -3.11131476   -3.61168087   -1.30928458
H     -0.31279409   -2.77095241   -3.98029968
H     -5.28524662   -4.48903858   -2.02909199
