20

O     -1.37059190    3.10225353   -0.26068317
C     -0.67819536    2.52136317    0.57274950
C     -0.98513209    1.13741647    1.13572055
C      0.14150466    0.12097991    0.82771474
C     -0.26291802   -1.00518777   -0.15620753
C      0.91947903   -1.90765057   -0.53728599
O      1.74759236   -1.19672279   -1.46639485
H      0.56063728   -2.80823576   -1.04473498
H      1.51337113   -2.19297199    0.33639658
H      0.21858672    3.00914454    0.99484146
O     -2.26661153    0.66817476    0.73394092
H     -1.04005279    1.27348238    2.22227132
H     -2.25351621    0.69228913   -0.24861607
O     -0.81208322   -0.43300291   -1.35477507
H     -1.04461420   -1.61712423    0.30773003
H     -0.13446870   -0.54639975   -2.05244389
O      1.33973476    0.79612432    0.41713683
H      0.40210082   -0.36996427    1.77404872
H      1.51294825    0.54455422   -0.51561250
H      2.49222899   -1.78852241   -1.68579660
20

O     -3.46785659    0.82453158   -0.26172726
C     -2.53355817    0.83053517    0.53453023
C     -1.76598418   -0.43642959    0.89681836
C     -0.25474498   -0.23266557    0.71601022
C      0.22190973   -0.45722805   -0.73286044
C      2.57408425   -0.07395120   -0.62867609
O      3.46244987    1.02112683   -0.68139546
H      2.92453340   -0.86485950   -1.29820690
H      2.54774111   -0.43934168    0.40192192
H     -2.25118389    1.74668670    1.08455306
O     -2.23125828   -1.54849518    0.13531331
H     -1.98994954   -0.63068675    1.95148432
H     -3.08359574   -1.26409893   -0.26092921
O      1.31371125    0.41405536   -1.04334860
H      0.49234914   -1.50775521   -0.90345822
H     -0.57435502   -0.21289281   -1.44270786
O      0.13029813    1.06193252    1.19795221
H      0.26711171   -0.96429928    1.34498173
H      0.82410686    1.39013976    0.58608906
H      3.39419093    1.34369582   -1.59634439
