20

O     -1.37059190    3.10225353   -0.26068317
C     -0.67819536    2.52136317    0.57274950
C     -0.98513209    1.13741647    1.13572055
C      0.14150466    0.12097991    0.82771474
C     -0.26291802   -1.00518777   -0.15620753
C      0.91947903   -1.90765057   -0.53728599
O      1.74759236   -1.19672279   -1.46639485
H      0.56063728   -2.80823576   -1.04473498
H      1.51337113   -2.19297199    0.33639658
H      0.21858672    3.00914454    0.99484146
O     -2.26661153    0.66817476    0.73394092
H     -1.04005279    1.27348238    2.22227132
H     -2.25351621    0.69228913   -0.24861607
O     -0.81208322   -0.43300291   -1.35477507
H     -1.04461420   -1.61712423    0.30773003
H     -0.13446870   -0.54639975   -2.05244389
O      1.33973476    0.79612432    0.41713683
H      0.40210082   -0.36996427    1.77404872
H      1.51294825    0.54455422   -0.51561250
H      2.49222899   -1.78852241   -1.68579660