20

O     -1.81867730   -1.92976889    1.44941024
C     -1.06958203   -0.97232502    1.61953388
C      0.35930506   -0.84639601    1.09944358
C      0.50193291    0.09433621   -0.07915792
C     -0.54507728    1.10696597   -0.49727338
C     -0.31451446   -0.12071656   -1.33060836
O      7.30770218   -0.25911128   -0.22059204
H     -1.07078892   -0.89859474   -1.32258026
H      0.18649087   -0.01595115   -2.28608122
H     -1.42949285   -0.08818253    2.17434216
O      0.93416018   -2.09857445    0.74354378
H      0.94899188   -0.45633658    1.93710737
H      1.69237030   -1.89051797    0.16685848
O     -0.00870824    2.33049042   -1.03429274
H     -1.48330383    1.16821338    0.04193023
H     -0.63884183    2.74305111   -1.65328462
O      1.87284694    0.48295663   -0.33200444
H      7.10791648    0.66787728   -0.41993818
H      1.88288857    1.39135019   -0.69688679
H      6.88933280   -0.40876600    0.64053021
20

O     -2.07402095   -0.22829836   -0.00427606
C     -0.90875709    0.04211766    0.79684986
C     -1.63271858   -1.28514995    0.84441611
C      0.38679604    0.26701483    0.02110722
C      1.02050608    1.64055313   -0.10061820
C      0.44502594    0.97271515   -1.31008092
O      7.34816820    0.14218672   -0.07618027
H     -0.47511010    1.37558902   -1.71578468
H      1.12968425    0.59745469   -2.06053641
H     -1.04869729    0.68454864    1.66145260
O     -1.01602946   -2.38430483    0.15506761
H     -2.22912250   -1.50622113    1.72243452
H     -1.56015255   -2.61462524   -0.62004232
O      2.45755294    1.66470247   -0.02404051
H      0.48317621    2.49283584    0.29988401
H      2.78413801    0.74889485    0.08309423
O      1.35154326   -0.80490358    0.16360805
H      6.93656420   -0.66219620   -0.42619637
H      0.88618579   -1.66292322    0.08746488
H      6.66884288    0.52000947    0.50237663
