20

O     -2.64206644    1.50101871    0.83413969
C     -1.57143723    1.02951998    1.22115979
C     -0.74069263   -0.11291817    0.52528530
C      0.00090385    0.34294962   -0.78209767
C      1.21364775   -0.50750940   -0.31140146
C      0.67053387   -0.38359825    1.12471131
O      7.26883630    0.25755964   -0.18146835
H      0.75597372   -1.29508262    1.72419162
H      1.09444162    0.44958860    1.69705276
H     -1.11842910    1.42031733    2.14783199
O     -1.54105742   -1.31907386    0.36004371
H      6.76168503    0.38851734    0.63376699
H     -2.17245384   -1.07332113   -0.34582802
O      2.51349212    0.06738187   -0.54396706
H      1.18161857   -1.54096695   -0.68111432
H      2.78344029   -0.26212826   -1.41944294
O     -0.61086639   -0.05070141   -2.03199330
H      0.21199895    1.42075747   -0.79660117
H     -0.02904769    0.31376647   -2.72197022
H      7.04735759   -0.64607698   -0.45229864