20

O     -2.31052677   -1.04414620    1.57154806
C     -1.24198368   -1.21511835    1.00328744
C     -0.01523540   -0.36010329    1.17689316
C      0.85933789   -0.24940185   -0.04037023
C      0.30661656    0.13626887   -1.38959897
C      1.21481313    1.08417753   -0.65003902
O      0.54748818    2.25229200   -0.13478008
H      2.21743809    1.20984850   -1.04648745
H      3.23971526    1.80499640    1.86901984
H     -0.35062520    0.62797885    1.50840166
O     -1.06015159   -2.28794809    0.20985048
H      0.56915823   -0.79210961    1.99791272
H     -1.95703302   -2.67733425    0.14905346
O     -1.07560838    0.52893638   -1.43887741
H      0.70953436   -0.37966127   -2.25499322
H     -1.16849718    1.42562061   -1.06034925
O      2.79990197    1.05679679    2.29997531
H      1.61726300   -1.02651133   -0.04461691
H      3.42904737    0.77639986    2.98152841
H      1.13801181    2.76721152    0.44316559