20

O      1.37939857    3.02556441   -0.26750351
C      0.40902197    2.29992314   -0.11078582
C      0.19286987    1.37561176    1.04836762
C     -0.56013790    0.07788612    0.73616438
C     -0.09950828   -0.63181520   -0.56005116
C     -0.50800284   -2.11500847   -0.65414984
O      0.41135115   -2.83495323   -1.48263701
H     -1.50332686   -2.21099770   -1.09830077
H     -0.52984347   -2.61492751    0.31766980
H      1.17977226    1.12913935    1.46219987
O     -0.63210743    2.37207518   -0.95667897
H     -0.33347824    1.92854788    1.83559624
H     -0.32063920    3.01156010   -1.63447425
O      1.33008808   -0.55241768   -0.69575356
H     -0.51516944   -0.11376978   -1.43136289
H      1.70244549   -1.02961351    0.07039993
O     -0.33182468   -0.79906450    1.85477716
H     -1.64068348    0.25501692    0.68325192
H     -0.72056553   -0.38472317    2.64625176
H      1.09033998   -2.18803407   -1.76298093