20

O     -1.22235612    2.12638731    1.56972229
C     -1.57600972    0.97538641    1.31147201
C     -0.75917810   -0.12079457    0.53036447
C     -0.00998690    0.40340764   -0.74632398
C      1.19646390   -0.48112316   -0.32106015
C      0.64689470   -0.44199282    1.11667192
O      7.01005923    0.00171390   -0.38971698
H      0.72111679   -1.38943853    1.65898589
H      1.07362920    0.35061466    1.74224953
H     -2.57164337    0.63475055    1.64387619
O     -1.57430558   -1.30292766    0.26720071
H      6.60808372    0.54570463    0.30414956
H     -1.82134742   -1.20247354   -0.67586190
O      2.50374796    0.08805212   -0.51933823
H      1.15545111   -1.49075928   -0.75124078
H      2.75817116   -0.16085023   -1.42477459
O     -0.64256172    0.05568269   -2.00313762
H      0.20554738    1.47915817   -0.71714526
H     -0.08363327    0.47692022   -2.68166049
H      7.65155695   -0.54741852    0.08556742