20

O     -3.34339640   -0.39687344    1.80515946
C     -2.48870830   -0.81408644    1.02288045
C     -1.58294323    0.12218388    0.23762761
C     -0.16223741   -0.46447764    0.14345576
C      0.71949199    0.28179345   -0.88480654
C      2.00488015   -0.49261403   -1.22770279
O      2.89957940   -0.58988653   -0.12551573
H      2.54665777    0.03019711   -2.02239585
H      1.77473200   -1.50292161   -1.57994259
H     -2.41026491   -1.88792709    0.78605875
O     -1.57321820    1.40931985    0.85234618
H     -2.02020897    0.21651330   -0.76239495
H     -2.40715114    1.47923642    1.36171587
O      1.09236649    1.55808693   -0.34715736
H      0.15173850    0.44455116   -1.80770366
H      1.62866425    2.02042895   -1.01507562
O      0.45982024   -0.37714902    1.43480235
H     -0.22207760   -1.52431371   -0.13087555
H      0.43394797    0.58421085    1.64150879
H      2.49832741   -0.09627237    0.61801544