9

C      0.52650131   -0.05963711    0.87728351
C     -0.00536754    0.07631184   -0.53339187
H      1.61148633    0.07509341    0.90023927
H      0.21696991    1.07008285   -0.93344885
H      0.43973060   -0.68056131   -1.18614832
O     -1.41333753   -0.10530391   -0.51636128
H     -1.72410277   -0.01253636   -1.43306840
H      0.06417191    0.68196560    1.53711397
H      0.28394779   -1.04541501    1.28778198
9

C      0.31166294   -0.13153812    0.55592863
C     -0.40147066    0.17616707   -0.72447180
H      1.37887060   -0.24564237    0.35221308
H     -0.07332906    1.09185031   -1.24461141
H      0.81000237   -1.18839295   -3.11654676
O     -1.29613393   -0.52501255   -1.18539459
H      0.23386262   -1.30812395   -3.56524206
H      0.15706458    0.69108912    1.25792268
H     -0.07666448   -1.05691347    0.98841341
