9

C     -0.58365055   -0.27212198    0.09379555
C      0.75731870    0.35678655   -0.12755072
H     -1.33984949    0.51325342    0.16291866
H     -0.57714818   -0.85314840    1.01928237
H     -0.81294096   -0.93055931   -0.74722474
O      1.70395183    0.21829932    0.63997854
H      5.02037215    0.18880369   -0.26042375
H      0.85231863    0.96749041   -1.04119965
H      5.38606403   -0.18880369    0.26042375
9

C     -0.46376745   -0.71869321   -0.19862835
C      0.35273777    0.32525184   -0.34496067
H      0.20667393    0.93365475    1.46287116
H     -0.94492138   -0.95161607    0.74413950
H     -0.66881196   -1.37291001   -1.04037001
O      0.67088041    1.20201726    0.65115866
H      5.03500764    0.18880369   -0.26042375
H      0.84720867    0.58229543   -1.27421029
H      5.40069953   -0.18880369    0.26042375
