9

C      1.17473169    0.48772786    0.23685359
C      0.64286281    0.62367726   -1.17382173
H      2.25971681    0.62245710    0.25980908
H      0.86519980    1.61744858   -1.57387835
H      1.08796122   -0.13319544   -1.82657860
O     -0.76510719    0.44206088   -1.15679126
H     -1.07587226    0.53482727   -2.07349861
H      0.71240330    1.22933125    0.89668388
H      0.93217700   -0.49804962    0.64735220
9

C      1.14336403    0.51485562    0.28968491
C      0.43022840    0.82255858   -0.99071456
H      2.21056911    0.40073494    0.08596532
H      0.75833734    1.73826484   -1.51083347
H      0.35755135    0.09232893   -1.90997382
O     -0.46439189    0.12134242   -1.45166789
H     -0.34538961    0.30921669   -1.99018420
H      0.98878020    1.33749185    0.99167176
H      0.75502425   -0.41050874    0.72218213
