9

C     -0.58365055   -0.27212198    0.09379555
C      0.75731870    0.35678655   -0.12755072
H     -1.33984949    0.51325342    0.16291866
H     -0.57714818   -0.85314840    1.01928237
H     -0.81294096   -0.93055931   -0.74722474
O      1.70395183    0.21829932    0.63997854
H      5.02087638    0.18823169   -0.26119022
H      0.85231863    0.96749041   -1.04119965
H      5.38555981   -0.18823169    0.26119022