20

O     -2.81741908   -0.04101317    0.66626748
C     -2.29490821   -1.13884742    0.47645286
C     -0.80451602   -1.43807758    0.61782445
C      0.01885158   -0.35257453   -0.03299656
C      0.54034139    0.69349429    0.63281253
C      1.37333892    1.81104372    0.08688919
O      1.57510902    1.65201629   -1.31449539
H      2.35019426    1.82431944    0.57947478
H      0.87038594    2.76717595    0.26090112
H     -2.92650324   -2.02003357    0.27018953
O     -0.50528155   -2.67992381   -0.02030836
H     -0.58255174   -1.55554707    1.68295103
H     -0.21297347   -2.43289921   -0.92196409
O      8.04160205   -0.02676673    0.10665056
H      0.33222539    0.77493627    1.69852282
H      7.67899602    0.22047419   -0.75726483
O      0.24782811   -0.54408305   -1.38865172
H      7.25725820   -0.19370745    0.65061427
H      0.77989500    0.23200761   -1.68710232
H      2.05598369    2.44800585   -1.60676732
20

O      2.34452495   -0.96831943    0.14788423
C      1.57144897   -0.77018393    1.08231631
C      0.09667376   -1.15581304    1.08204397
C     -0.33963102    1.33343985   -0.85265929
C     -0.55299382    0.05492582   -1.18523578
C     -0.51818773   -1.19067780   -0.32476705
O     -0.38500129    2.34666565   -1.76882692
H     -1.55647182   -1.53621203   -0.23715085
H      0.01774918   -1.95433122   -0.90424073
H      1.94847204   -0.38024480    2.04333497
O     -0.67134485   -0.35009237    1.96735233
H      0.06074139   -2.16805768    1.50154773
H     -0.69072036    0.54382060    1.56413799
O      7.45090365   -0.02676673    0.10665056
H     -0.78072243   -0.16944401   -2.22594579
H      7.08829761    0.22047419   -0.75726483
O     -0.07944260    1.72225909    0.42777551
H      6.66655980   -0.19370745    0.65061427
H      0.06372028    2.68476107    0.33139470
H     -0.52881466    1.95750422   -2.64896132
