20

O     -2.81741908   -0.04101317    0.66626748
C     -2.29490821   -1.13884742    0.47645286
C     -0.80451602   -1.43807758    0.61782445
C      0.01885158   -0.35257453   -0.03299656
C      0.54034139    0.69349429    0.63281253
C      1.37333892    1.81104372    0.08688919
O      1.57510902    1.65201629   -1.31449539
H      2.35019426    1.82431944    0.57947478
H      0.87038594    2.76717595    0.26090112
H     -2.92650324   -2.02003357    0.27018953
O     -0.50528155   -2.67992381   -0.02030836
H     -0.58255174   -1.55554707    1.68295103
H     -0.21297347   -2.43289921   -0.92196409
O      8.04160205   -0.02676673    0.10665056
H      0.33222539    0.77493627    1.69852282
H      7.67899602    0.22047419   -0.75726483
O      0.24782811   -0.54408305   -1.38865172
H      7.25725820   -0.19370745    0.65061427
H      0.77989500    0.23200761   -1.68710232
H      2.05598369    2.44800585   -1.60676732