20

O     -0.48638391   -1.77910941    2.25137298
C     -0.40892350   -2.24702809    1.11523093
C      0.40165322   -1.65606280   -0.04035538
C      0.39961832   -0.15490493   -0.20261297
C     -0.45116381    0.70824050    0.38462565
C     -0.48551382    2.19853693    0.25392604
O      0.24752896    2.61631597   -0.89373334
H     -0.04701010    2.66706955    1.14009611
H     -1.52166267    2.53555773    0.14906809
H     -0.88076726   -3.21976414    0.89435490
O     -0.10369483   -2.22984135   -1.25036029
H      1.43057068   -2.01133362    0.09857324
H      0.59464143   -2.81263085   -1.59274720
O      7.73453537    0.00058797    0.18234835
H     -1.22319209    0.31753199    1.04413275
H      6.88727055   -0.32211024    0.52435593
O      1.40906010    0.30918218   -1.03842748
H      7.52111653    0.32152226   -0.70670428
H      1.23594880    1.26903804   -1.17558529
H     -0.11070952    3.48920231   -1.13755874
20

O     -0.87832732   -0.83327999   -0.52775729
C     -0.33750527   -0.06523109    0.24527025
C     -1.39708068    3.03463127   -2.16385317
C     -1.86817206    1.80576157   -2.94947496
C     -0.64192257    1.57790804   -3.45993016
C     -0.01107097    2.77124708   -2.78255350
O      0.84877222    0.49794000   -0.03003676
H      0.34432274    3.56718359   -3.44660575
H      0.78098134    2.55017984   -2.05872612
H     -0.72022560    0.25938108    1.22384805
O     -1.51106977    2.88233695   -0.73501473
H     -1.84528050    3.98474827   -2.47798195
H     -2.42129202    2.55704080   -0.61653828
O      2.92844270   -4.59800593    0.10665056
H     -0.22861441    0.81964918   -4.11804787
H      2.56583667   -4.35076502   -0.75726483
O     -3.01511854    1.25121838   -3.01722793
H      2.14409885   -4.76494666    0.65061427
H     -2.95337513    0.47367381   -3.60127024
H      1.08728596    0.14119001   -0.91132425
