20

O     -0.87832732   -0.83327999   -0.52775729
C     -0.33750527   -0.06523109    0.24527025
C     -1.39708068    3.03463127   -2.16385317
C     -1.86817206    1.80576157   -2.94947496
C     -0.64192257    1.57790804   -3.45993016
C     -0.01107097    2.77124708   -2.78255350
O      0.84877222    0.49794000   -0.03003676
H      0.34432274    3.56718359   -3.44660575
H      0.78098134    2.55017984   -2.05872612
H     -0.72022560    0.25938108    1.22384805
O     -1.51106977    2.88233695   -0.73501473
H     -1.84528050    3.98474827   -2.47798195
H     -2.42129202    2.55704080   -0.61653828
O      2.92844270   -4.59800593    0.10665056
H     -0.22861441    0.81964918   -4.11804787
H      2.56583667   -4.35076502   -0.75726483
O     -3.01511854    1.25121838   -3.01722793
H      2.14409885   -4.76494666    0.65061427
H     -2.95337513    0.47367381   -3.60127024
H      1.08728596    0.14119001   -0.91132425