20

O     -2.76274310    1.21564272    1.09872929
C     -1.56384639    0.98097618    1.26486344
C     -0.71535586   -0.13717907    0.54833546
C     -0.03986060    0.33908009   -0.78691792
C      1.21942360   -0.46481152   -0.35847653
C      0.72661454   -0.34957776    1.09676131
O      7.05926309    0.10176986   -0.35510899
H      0.86779255   -1.25333747    1.69767565
H      1.14062388    0.50191728    1.64868968
H     -0.99286230    1.59806514    1.97871610
O     -1.46927911   -1.37818184    0.42589973
H      6.17641040    0.28619522   -0.00082182
H     -2.19538073   -1.14167805   -0.18514272
O      2.48743874    0.15644745   -0.64243906
H      1.21116894   -1.50120014   -0.72113697
H      2.74714162   -0.18447160   -1.51660457
O     -0.68226808   -0.07415217   -2.01404930
H      0.13397248    1.42347593   -0.81028133
H     -0.11258019    0.26898482   -2.72462226
H      7.49919845   -0.38796507    0.35593080