20

O     -1.79082367   -1.42496203    2.25863056
C     -1.46711219   -1.53772833    1.07499612
C     -0.92222282   -0.40326225    0.21140496
C      0.25501670   -0.84975299   -0.68218801
C      1.64410138   -0.37218659   -0.22645444
C     -0.88541144    1.96436237    0.37063323
O      0.05026050    2.91781170    0.82591729
H     -1.89866762    2.28795242    0.62478575
H     -0.78194660    1.89883851   -0.71699282
H     -1.68775870   -2.47663396    0.53837920
O     -0.59483666    0.73531382    1.00010545
H     -1.76844343   -0.16387139   -0.44870770
H      2.03859583   -0.98020937    0.59242979
O      2.55187268   -0.49712283   -1.33081050
H      1.65557298    0.67885215    0.07777223
H      2.58801529    0.37622785   -1.76409379
O      0.23761947   -2.27183640   -0.87556508
H      0.08135578   -0.43294697   -1.68155795
H      0.83302399   -2.46668013   -1.62369904
H     -0.13821148    3.01783442    1.77501475