20

O      0.19408219    0.32568065    3.46731508
C      0.92959809    0.14524569    2.49849875
C      0.46428606   -0.45297506    1.17804437
C      0.62238880    0.54706168    0.01274064
C     -0.38089368    0.39594238   -1.15561373
C     -0.62402147   -1.03037190   -1.66309801
O     -1.97002283   -1.41235307   -1.37097561
H      0.05178033   -1.75525293   -1.20094987
H     -0.50502379   -1.09483647   -2.74907192
H      1.99565284    0.42210772    2.54601554
O     -0.85964689   -0.94536145    1.31415277
H      1.09883238   -1.32477728    0.98146022
H     -1.39146414   -0.23722074    1.72531792
O      0.13677306    1.19110793   -2.24523770
H     -1.33589006    0.86026460   -0.87764149
H      0.12888845    2.10926234   -1.91398428
O      0.47246002    1.91393186    0.46335765
H      1.64795629    0.48217912   -0.37406690
H      1.33725871    2.24281353    0.76573523
H     -2.01299438   -2.38244864   -1.40199872