20

O     -2.62955772    1.47525325    0.88994184
C     -1.55690477    0.99757901    1.26365855
C     -0.72664048   -0.13093992    0.54413489
C     -0.02635322    0.34001889   -0.78009600
C      1.21733722   -0.48042646   -0.33900549
C      0.70190214   -0.38166438    1.10889939
O      7.04683415    0.10176986   -0.35510899
H      0.81673355   -1.29783437    1.69635682
H      1.12267001    0.45273608    1.68170710
H     -1.09937184    1.37358411    2.19424449
O     -1.51241392   -1.34836384    0.39277411
H      6.16398145    0.28619522   -0.00082182
H     -2.13860005   -1.12195863   -0.32426168
O      2.49642253    0.13069446   -0.59346272
H      1.20560920   -1.51180832   -0.71550242
H      2.74675184   -0.16711928   -1.48590106
O     -0.66048893   -0.07133981   -2.01337998
H      0.15816715    1.42249113   -0.80125552
H     -0.11526273    0.31909809   -2.71885234
H      7.48676950   -0.38796507    0.35593080
20

O     -2.52477297    1.07763513    1.19637715
C     -1.29896512    0.98794183    1.19355899
C     -0.51926266   -0.05464174    0.40805477
C     -0.10451760    0.55563956   -0.94522947
C      1.63761709   -0.75736838   -0.17917155
C      0.81984364   -0.37645557    1.03691372
O      7.08540968    0.25755964   -0.18146835
H      0.78518832   -1.18956961    1.76822561
H      1.26180104    0.50597837    1.51452073
H     -0.69316431    1.73647545    1.73237203
O     -1.24188123   -1.27295926    0.23904704
H      6.57825841    0.38851734    0.63376699
H     -1.84485373   -1.10470517   -0.51549175
O      1.23653049    0.14058771   -1.22031671
H      1.42499566   -1.78107524   -0.50689435
H      2.71333187   -0.66218558   -0.00742633
O     -0.95576732    0.08703318   -1.97915958
H     -0.12023357    1.65125106   -0.94028778
H     -0.57588959    0.45641825   -2.79509252
H      6.86393097   -0.64607698   -0.45229864
