20

O     -1.80606129    0.49606529    2.43810676
C     -1.71442224    0.30086658    1.22435976
C     -0.63975471   -0.56571789    0.57736798
C      0.47950572    0.27073063    0.00720231
C      1.18269657   -0.04277087   -1.08672320
C      0.31538379   -5.52849928    2.71929227
O      0.08414166   -4.27062538    2.11218206
H      0.62537245   -6.24958084    1.95898336
H      1.10835836   -5.42350820    3.46346245
H     -2.43571331    0.76092878    0.52959866
O     -1.23435682   -1.36748330   -0.44371112
H     -0.23082728   -1.23577536    1.34165411
H     -1.81317655   -2.00723103    0.00621468
O      2.21389249    0.75213545   -1.52025360
H      1.01768624   -0.93081872   -1.68358508
H      2.63170519    0.30608555   -2.28039911
O      0.80183150    1.43265507    0.69359479
H     -0.59895455   -5.87077756    3.21016107
H      1.54699449    1.83032983    0.19657307
H     -0.62368725   -4.39522222    1.45726365
20

O     -1.27836711    1.06022408    2.34028599
C     -1.60947752    0.44854989    1.32014073
C     -0.69838317   -0.46805555    0.46870889
C      0.31365702    0.35190833   -0.31962024
C      1.52060202   -0.09512267   -0.68956516
C     -5.08788388    3.18034075    1.35549812
O     -0.00874347   -1.44563504    1.21866288
H     -5.23480543    2.60812390    2.27412829
H     -5.42804813    4.20699046    1.50774179
H     -2.65121401    0.50854186    0.96066024
O     -1.53185498   -1.16606160   -0.44704259
H     -4.02745397    3.18316376    1.09400248
H     -1.48939825   -0.66965616   -1.28295199
O      2.38003363    0.68057863   -1.42587677
H      1.89105135   -1.08952457   -0.46915202
H      3.17691174    0.14617178   -1.60588134
O     -0.06447158    1.63631507   -0.69470776
H     -5.66122795    2.72308488    0.54611987
H      0.75600722    2.04725076   -1.04453001
H     -0.70635287   -1.94548481    1.67086915
