20

O     -1.80606129    0.49606529    2.43810676
C     -1.71442224    0.30086658    1.22435976
C     -0.63975471   -0.56571789    0.57736798
C      0.47950572    0.27073063    0.00720231
C      1.18269657   -0.04277087   -1.08672320
C      0.31538379   -5.52849928    2.71929227
O      0.08414166   -4.27062538    2.11218206
H      0.62537245   -6.24958084    1.95898336
H      1.10835836   -5.42350820    3.46346245
H     -2.43571331    0.76092878    0.52959866
O     -1.23435682   -1.36748330   -0.44371112
H     -0.23082728   -1.23577536    1.34165411
H     -1.81317655   -2.00723103    0.00621468
O      2.21389249    0.75213545   -1.52025360
H      1.01768624   -0.93081872   -1.68358508
H      2.63170519    0.30608555   -2.28039911
O      0.80183150    1.43265507    0.69359479
H     -0.59895455   -5.87077756    3.21016107
H      1.54699449    1.83032983    0.19657307
H     -0.62368725   -4.39522222    1.45726365