20

O     -1.25302621   -3.39165665   -0.58146418
C     -0.78423057   -2.52737959    0.16327000
C      0.36087912   -1.61210096   -0.26535020
C      0.13694659   -0.19369479    0.21696525
C      0.34195746    0.90861798   -0.52997720
C      0.20799678    2.34370188   -0.12600033
O     -0.24755985    2.44991135    1.22046680
H     -0.50699439    2.85385375   -0.77793270
H      1.18038316    2.84063730   -0.20178260
H     -1.10685150   -2.45285104    1.21531661
O      0.51660106   -1.66383909   -1.68349228
H      1.27704528   -2.00313004    0.18909207
H      0.12115564   -2.51615813   -1.95772395
O      7.61445788   -0.25993712    0.25981464
H      0.67663541    0.77242931   -1.55794792
H      7.36141517   -0.41664822   -0.66234154
O     -0.26419349   -0.08869379    1.54042463
H      7.41069353    0.67658533    0.40252691
H     -0.37044822    0.87558506    1.72265180
H     -0.28629627    3.40476745    1.41348420
20

O     -3.03755321    0.14784126    1.81916179
C     -1.82034083    0.22284705    1.69007948
C     -1.02759333   -0.70003173    0.73573626
C     -0.04064601    0.05859554   -0.10449723
C      0.99735247   -0.52179191   -0.73410626
C      2.04241997    0.16477943   -1.55591302
O      2.03816958    1.56202092   -1.31392742
H      1.88655121   -0.02347746   -2.62312920
H      3.03003980   -0.21815494   -1.28212156
H     -0.19179595    1.13146111   -0.20131774
O     -1.89027507   -1.39961382   -0.15187754
H     -0.51935666   -1.43986921    1.36497044
H     -2.75799952   -1.44708552    0.29658970
O      7.68696707   -0.02676673    0.10665056
H      1.10565922   -1.60408785   -0.67112678
H      7.32436104    0.22047419   -0.75726483
O     -1.06875461    1.08338593    2.41539540
H      6.90262322   -0.19370745    0.65061427
H     -0.11131359    1.04033995    2.21932189
H      1.36543653    1.94284124   -1.90323823
