43

C        12.48387862405253    5.71058832705563    3.48172726340838
C        11.55510073150689    4.92368497424124    2.63325934940918
C        10.51834673441398    5.26897205140196    1.82588322773923
C        10.02665940352883    4.06396335221905    1.25330409295171
C        10.79422665883208    3.05865954898845    1.74708881848784
C        10.81392389542123    1.59127275574132    1.51310339856611
O        11.72371164622576    3.57374576918759    2.59740130628534
H        12.29083095524723    5.53363531852450    4.53982725111489
H        12.36322935376570    6.76910525205126    3.27399054549700
H        13.51230958952583    5.41529528961631    3.27379997183341
H        10.14495908593679    6.25660953468332    1.64968386024373
H         9.21304083321595    3.97033887670021    0.56380957852780
H        10.73422586730828    1.05034567040869    2.45600275607382
H        11.74830331285893    1.30132947976843    1.03164867688157
H         9.98500998516221    1.31338146574780    0.86935617618059
C         9.24803228302815    2.58914277889020    4.66075974061383
C         9.76941455940841    3.69182342669247    5.15493804484847
H         8.46680904039943    2.61149189552012    3.91945607872842
H         9.57582005499146    1.61105236538406    4.97550773585908
H         9.43821336813235    4.66761478374943    4.84110883724811
H        10.55156449243444    3.67046289230820    5.89587568269738
Al       15.35952879018010    3.00517312366929    2.69553768259058
O        15.77624615728202    4.12895791395176    3.89250668011647
O        16.41545882551803    1.70448286868717    2.48487469474846
O        14.65436414906387    3.66113540652556    1.29925731139093
O        13.85539930740255    2.17048926762370    3.46788561480027
H        13.09263452436115    2.69104571949154    3.14038656089660
Si       16.22823620380598    5.13308309224130    5.05979147785414
Si       14.11172559108507    4.29879357753970   -0.07063696188578
Si       17.38963141082115    0.44048452659818    2.31449342019970
Si       13.54472844998619    0.89155671724720    4.47413395917822
H        17.59262576037221    4.80897856452490    5.48136760577662
H        16.13327151608930    6.50326796175680    4.54245405398656
H        15.28190264765241    4.94996633554632    6.17350282868418
H        12.91243041382768    3.53640510990061   -0.45518165747897
H        13.74907400645553    5.69645853434964    0.19169657033725
H        17.47880990366490    0.10803715498183    0.88882571663598
H        15.14319882828426    4.19425067164534   -1.10320228686552
H        16.78814901201438   -0.67815734306537    3.06205730034287
H        14.66493304883847    0.78233656924714    5.39346747322939
H        12.29438884598139    1.29477307595791    5.12614063410700
H        18.70433185500250    0.77970723321531    2.86694438537950
H        13.34693121701357   -0.28569934073125    3.62819662706363