21

Ni       0.7419233779      0.8344073765     -0.4788809521
Ni      -0.8742143542      0.3161253653      1.3326275698
Ni       0.6784910435     -1.5218819145      1.0015295171
Ni      -1.7252898258      1.1161811755     -0.7023382850
Ni      -0.6591437104     -1.0147032664     -0.8390022653
Ni      -1.8813537844     -1.6680881190      0.8947777946
H        4.0451970160     -1.3320575558     -0.6293716471
H        2.3615086129     -3.0072585196     -0.2444765546
O        3.2602994761      0.6650372929      0.8480965399
C        3.3486132049      2.0501660200      0.8136976410
C        2.9204278952      2.5501636965     -0.3688775662
C        2.4696772890      1.4335914897     -1.1986449336
C        2.6355408827      0.2624210302     -0.3817892679
C        2.9851420556     -1.1162540856     -0.7950523374
O        2.2237399580     -2.0884780297      0.0262939421
H        3.7328382814      2.5105672471      1.7069185900
H        2.9009684510      3.5913476493     -0.6488783762
H        2.4327663284      1.4592317637     -2.2809843436
H        2.7186723140     -1.2623098037     -1.8449497049
H       -0.4564850142     -1.0180552710      2.1550759981
H       -0.4646387389      1.8663832810     -1.0934862187
