21

Ni      -0.6778132382      0.0905940734     -0.4919506760                 
Ni      -1.0551981491      2.2507065262      0.8068447128                 
Ni       0.1260501687      2.0679146218     -1.1267333242                 
Ni       0.3734004467      0.5459087618      1.4140154512                 
Ni       1.4360361406      0.4013305635     -0.6503553833                 
Ni       1.2263042250      2.2903852464      0.7542190161                 
H       -3.7888918762     -1.7115520659     -0.8471432603                 
H       -1.8165312243     -2.6276425879     -0.3248169601                 
O       -2.5452741664      0.6814109424     -0.9363064648                 
C       -2.2929327245      2.0893348894     -0.5965828380                 
C       -2.9823950453      2.3412998553      0.6590717496                 
C       -3.5953679135      1.0766553359      1.0410264160                 
C       -3.2887418363      0.1369097600      0.1185937699                 
C       -3.3110491949     -1.3414648455      0.0690924034                 
O       -1.9063993910     -1.7408808752      0.0626431271                 
H       -2.3963461174      2.7047493632     -1.4880558093                 
H       -3.4287278272      3.2977895251      0.9185715848                 
H       -4.1549554551      0.8930300850      1.9500486132                 
H       -3.8271065037     -1.7533969528      0.9423794225                 
H        0.2797371867      2.1319077991      2.1263968675                 
H        0.8684229510      3.1953858445     -1.7650996258                 