12

O       -4.1328710400      3.3717253407     -0.5012539024
C       -4.7652566817      2.1419256265     -0.2481511693
C       -3.2890876128      2.2701107405     -0.2750581726
H       -5.2672260774      1.7970938939     -1.1759524646
H       -5.2660911306      2.1899170475      0.7407530275
H       -2.7690735702      2.0138513422     -1.2213715587
H       -2.7681551617      2.4081967704      0.6948188619
O       -1.3312534695     -0.6419959308      0.4924384128
H       -1.0362815019      0.1471395683      1.0125605653
H       -2.2024213449     -0.8897884004      0.8924704861
Cl      -4.0110808725     -1.3809977093     -1.9864531512
H       -3.8921661775     -0.5366847620     -0.9098707392                