11

C       -4.2075267480     -0.4135084472      0.4086014638                 
H       -3.1084224825     -0.2634986125      0.3900474764                 
H       -4.4548294232     -1.2543160887      1.0885758208                 
H       -4.5661305804     -0.6470616230     -0.6147074250                 
H       -4.7013490749      0.5117014105      0.7702309164                 
Ni      -2.7399337649     -0.3352999165     -2.5003672205                 
Ni      -4.1410781739     -2.1812281637     -2.7225877984                 
Ni      -1.1092552788     -1.6890880983     -1.5377084062                 
Ni      -4.3721385517      1.0191220914     -3.4598751181                 
Ni      -1.3373100726      1.5096155545     -2.2807711163                 
H       -3.6609074780      2.5912092233     -0.6764760518                 
H       -3.0129394569      2.3293659908     -0.5626828685    