10

O       -3.8319043362      2.8580256802     -0.4578380861                 
C       -4.6824252551      1.7556531294     -0.2677031410                 
C       -3.2075825122      1.6187706106     -0.2376352953                 
H       -5.2027696950      1.5371678832     -1.2230321557                 
H       -5.2061168176      1.8654317297      0.7046450896                 
H       -2.6995702830      1.3043097181     -1.1726810409                 
H       -2.7098049431      1.6391154964      0.7542690299                 
O       -4.8805354172      4.3245763413      2.1414738276                 
H       -3.9088416376      4.2345803465      1.9728717651                 
H       -5.2510429037      4.6599324932      1.2864437428 