13

Ni       0.4058765069      0.0946388494     -2.7787041186                 
Ni       1.9756409187      1.2228031529     -2.2107182788                 
Ni       0.7847297153     -0.0055412142     -0.9250582560                 
Ni       0.1460096321      2.1018437980     -3.1027018519                 
Ni      -1.3201084828      0.5237259176     -2.0223395964                 
Ni       0.7257978865      2.3153626413     -0.6866030058                 
O       -0.7988069379     -1.7618361255     -0.9704691146                 
C        0.5109457176     -1.7392868977     -0.7893594565                 
C        1.0174747379     -2.1966434595     -1.9690428338                 
C        0.1219920568     -1.7699768599     -2.9810162599                 
C       -1.1274200756     -1.8650743618     -2.2577871281                 
H       -2.1898508962     -2.2395897897     -2.3117853742                 
H        1.4744736120     -3.0721750025     -1.7006641037  