34

C       12.7987965171      3.8560837920      6.4326305040                 
C       13.4340294664      3.8155755973      5.0471464375                 
O       14.7989279727      4.1653055473      5.1423700522                 
C       12.7448589495      4.8146346860      4.1181810888                 
O       11.7703453277      4.5566644125      3.4279247846                 
O       13.2848353278      6.0182571143      4.1331373728                 
H       13.2995180651      2.8086061440      4.6209277593                 
H       12.9044543909      4.8559372833      6.8807364825                 
H       13.3081176895      3.1263929087      7.0776726715                 
H       11.7305308916      3.6018007011      6.3756565117                 
H       15.1764618666      3.9460373728      4.2606180010                 
H       14.1132624884      5.9217853575      4.6569618457                 
Al      14.1797513524      2.2353218389      1.9792699233                 
O       14.9573386018      3.7404103440      2.4524835652                 
O       14.2940689340      1.0726020986      3.2272863470                 
O       12.3537034042      2.6756975681      1.8097319999                 
O       14.4249471346      1.8064095904      0.3328058140                 
H       11.9787412597      3.3279112494      2.4912304104                 
Si      15.5414172734      5.0120561440      1.5478052799                 
Si      15.1327939493      1.4839645613     -1.1160551999                 
Si      14.7817402756      0.1210784947      4.4723735868                 
Si      11.5398323609      2.5892831353      0.2885937288                 
H       15.9541252410      6.0965419369      2.4850502971                 
H       16.7213721228      4.5957858477      0.7375145360                 
H       14.4855457780      5.5359891910      0.6320170329                 
H       14.0734168259      1.2377886625     -2.1403876745                 
H       15.9611693747      2.6413298865     -1.5713507933                 
H       16.0075330816      0.2764788620     -1.0390627726                 
H       16.2597774579      0.1990172934      4.6744346195                 
H       14.4092993491     -1.3034491081      4.2281707752                 
H       14.1154860006      0.5636607120      5.7373562500                 
H       11.5702795879      1.1826949112     -0.1635345016                 
H       10.1536434789      3.0307955101      0.5877531626                 
H       12.1805182022      3.5128103534     -0.6751898984                                