21

Ni 0.0035925628 -0.0474105705 -3.4691352688
Ni 1.7445936070 1.3896623605 -2.6271820676
Ni 1.6984853208 -0.4999027163 -1.2067870315
Ni -0.4570394194 2.1733443474 -2.9223309667
Ni -0.4188870233 0.6600211704 -1.0750252631
Ni 0.8671669140 2.4685553374 -0.8682811895
H -3.5690096740 -2.0401937956 -2.9121494116
H -4.3866941547 -0.1735070332 -1.8704962630
O -1.4577756549 -2.0045440619 -0.4828051139
C -0.3528869311 -2.7545271599 -0.3448294678
C 0.0425922164 -3.2287189639 -1.5742815918
C -0.8672698432 -2.7393369991 -2.4853345753
C -1.7484927977 -2.0129637303 -1.8011875361
C -2.9146118272 -1.2940726959 -2.4093681899
O -3.6345983209 -0.6287358371 -1.4100714541
H 0.1444398115 -2.9505988334 0.5955656567
H 0.8992777085 -3.8589574416 -1.7718939701
H -0.8708085285 -2.9081586547 -3.5544107532
H -2.5314957338 -0.5583169380 -3.1506986196
H 1.9842973948 0.5835082194 -3.8932906495
H -1.3124966844 1.9632261330 -4.1589986450                             