20

O     -2.50628183    1.65275120    0.75931498
C     -1.55159614    1.04050108    1.23986677
C     -0.72648288   -0.11225239    0.55452441
C     -0.03278760    0.30733713   -0.79037885
C      1.21710279   -0.48729265   -0.32097841
C      0.70411534   -0.33930488    1.12316997
O      7.15792132    0.25755964   -0.18146835
H      0.82354752   -1.23314764    1.74304536
H      1.12235103    0.51712305    1.66474489
H     -1.20619334    1.29855419    2.25536377
O     -1.51458605   -1.33266425    0.44689398
H      6.65077004    0.38851734    0.63376699
H     -2.07651966   -1.16587975   -0.33709493
O      2.49200392    0.12093580   -0.60140425
H      1.21124531   -1.53204624   -0.65876268
H      2.73046772   -0.18985234   -1.49266448
O     -0.67153202   -0.16539877   -1.99998457
H      0.14363827    1.38900196   -0.85981658
H     -0.15849240    0.23163451   -2.72583938
H      6.93644261   -0.64607698   -0.45229864