20

O     -3.36683499    0.45629467   -0.06055101
C     -2.32342289    0.50780292   -0.70642321
C     -1.04516919   -0.18521991   -0.29352176
C     -0.46210575    0.36430134    1.00496148
C      0.92995923   -0.23504315    0.93239708
C      1.24780590   -0.06123154   -0.56380954
O      2.02612443   -1.15512287   -1.01733130
H      1.77629825    0.87959696   -0.75238213
H      1.75133246    1.43708239   -3.80456028
H     -2.27250286    1.08616797   -1.64399718
O     -0.00101960   -0.02174923   -1.27148692
H     -1.25944254   -1.25887266   -0.22607480
H      1.01823198    1.45625142   -3.70558439
O      0.88191699   -1.62504281    1.28500967
H      1.67462394    0.25843928    1.56324378
H      1.47741758   -2.07226154    0.64569283
O     -0.36060138    1.79562295    1.01667248
H     -1.03316111    0.04584647    1.88186288
H     -0.22305192    2.12421946    0.11138181
H      2.33316589   -0.90374829   -1.90564418