20

O     -1.92285010   -1.22213975    1.53499352
C     -0.99380977   -0.75761835    2.17169646
C      0.39127391   -0.46379261    1.67197168
C      0.46170503   -0.66312490    0.15825842
C      0.00793154    0.58623337   -0.61928895
C     -0.33231404    0.25355974   -2.07992839
O     -0.04716642    1.39351318   -2.89734585
H     -1.39671402    0.01323216   -2.17390342
H      0.25136423   -0.59268417   -2.45400077
H      0.66467895    0.56156242    1.94423893
O     -1.14165051   -0.45630112    3.47576195
H      1.08648768   -1.14427147    2.17666795
H     -2.06588055   -0.71031458    3.68150243
O      1.09341269    1.53690916   -0.59123046
H     -0.85974751    1.06423077   -0.15105386
H      0.99965088    2.02836563   -1.43791667
O      1.82990778   -0.93795140   -0.19328137
H     -0.12421284   -1.53816269   -0.14273773
H      2.25146023   -0.05273732   -0.25299045
H     -0.15352715    1.10149191   -3.82141342
20

O     -0.21427227    1.23247641   -2.40574142
C     -0.90686759    0.41895392   -1.81436557
C     -0.49360546   -0.93311429   -1.32298083
C      0.83073055   -0.84269405   -0.57751413
C     -0.30047117    0.70009887    1.85648109
C      0.86264080   -0.28626841    1.75792381
O      0.64764725   -1.28909019    0.76332509
H      0.94335316   -0.82139979    2.70942131
H      1.81620172    0.22252106    1.57571788
H     -1.28049848   -1.32808084   -0.66983027
O     -2.21590042    0.67193995   -1.60622200
H     -0.43252088   -1.58427866   -2.20258842
H     -2.34500680    1.55529526   -2.00988959
O     -0.16678595    1.71160956    0.86266451
H     -1.26199251    0.19902971    1.70902773
H     -0.81138667    2.40905248    1.07675535
O      1.73873320   -1.75996098   -1.18309419
H      1.29567974    0.14791978   -0.62652971
H      2.58270358   -1.61699953   -0.72582033
H     -0.28838180    1.19298971    2.83325970
