20

O      0.74100478    1.01899654    2.34065340
C      0.56551195   -0.17952330    2.17932744
C      0.50891624   -0.85653254    0.84733982
C     -0.80032704   -0.49836607    0.14690157
C     -0.75835341    0.79496936   -0.71062190
C      0.27888724    0.78393790   -1.84701858
O      0.31071558   -0.47377672   -2.51735567
H      1.28144310    1.00976633   -1.46980496
H      0.02848230    1.56254045   -2.57703444
H      1.39483513   -0.56450032    0.27465722
O      0.34781031   -1.00722914    3.21374581
H      0.59534709   -1.93988729    0.99359875
H      0.34996527   -0.44173097    4.01390435
O     -0.59987447    1.98224960    0.06616713
H     -1.74097896    0.87167239   -1.19382775
H      0.07429155    1.84577748    0.76195193
O     -1.20317432   -1.61843176   -0.65336364
H     -1.58418652   -0.37004257    0.90380881
H     -0.71070220   -1.54787761   -1.50104649
H      0.92038637   -0.37201177   -3.27198277