20

O     -2.60359787   -1.31113522    0.07394831
C     -1.53788516   -0.75195802   -0.13078050
C     -0.50677887   -0.47420635    0.91674089
C      0.72093254   -0.23894932    0.07411744
C      0.12326647    0.34848545   -1.20183900
C      3.32060957   -1.51393333   -3.17277185
O      3.69195450   -1.50275996   -1.80665297
H      3.27194580   -0.48478217   -3.53622843
H      4.06618234   -2.06682340   -3.74944762
H     -0.79355169    0.40267910    1.50432092
O     -1.13019304   -0.30364631   -1.34927274
H     -0.37358424   -1.33722213    1.57401752
H      2.33955446   -1.98295712   -3.28079356
O     -0.04980356    1.75443329   -1.07377942
H      0.75847226    0.15416376   -2.07115644
H      0.55860877    2.02627713   -0.35741952
O      1.62453444    0.67310194    0.69088052
H      1.23078622   -1.18541111   -0.14122273
H      1.97879374    0.24338778    1.49144475
H      3.72684444   -2.42886804   -1.51242386