20

O     -3.07004110    0.75462929   -1.83935013
C     -2.05308139    1.05901021   -1.24014796
C     -0.72107592    0.37509324   -1.34121693
C     -0.21189515    0.00967831    0.05350745
C      0.80096961   -1.15288483    0.00005194
C      1.28415373   -1.56080949    1.40051226
O      2.02749899   -0.50946813    2.01923571
H      1.95169101   -2.42512922    1.33156072
H      0.44039146   -1.82278065    2.04685158
H     -0.87684901   -0.53010754   -1.93948430
O     -2.03768875    2.12175691   -0.40914307
H     -0.03426966    1.03671266   -1.87921090
H     -2.95373147    2.47429630   -0.46750645
O      1.93363240   -0.76203101   -0.78571113
H      0.34197376   -2.01956723   -0.48767158
H      2.44934805   -0.15904161   -0.21201880
O      0.42360462    1.15180315    0.66090505
H     -1.04536306   -0.27540847    0.70646149
H     -0.17989524    1.91236104    0.52463222
H      1.53062712    0.32188708    1.85774284