20

O     -0.36310832   -2.88395036    1.61742951
C     -0.50305570   -2.45486920    0.47222929
C      0.56894705   -1.69130206   -0.29009106
C      0.35730832   -0.18845997   -0.26963151
C     -0.31570123    0.50828002    0.66596386
C     -0.55928114    1.98690823    0.71216296
O      0.23889642    2.65573949   -0.25962483
H     -0.30075589    2.37408671    1.70234769
H     -1.61245418    2.20129173    0.50669160
H     -1.47705622   -2.53771584   -0.03952961
O      0.53598584   -2.14295020   -1.64646350
H      1.55288868   -1.93702406    0.12172787
H      0.70998115   -1.34198117   -2.18127988
O      7.73992477    0.00058797    0.18234835
H     -0.74397443   -0.02546811    1.51341625
H      6.89265995   -0.32211024    0.52435593
O      0.91079111    0.45279595   -1.37294769
H      7.52650592    0.32152226   -0.70670428
H      0.79861898    1.42132893   -1.22017853
H      0.20196955    3.60328989   -0.03222241
20

O      0.48572103    2.54290809    0.13103624
C      1.10026359    2.06944203   -0.82157888
C     -0.79381971   -1.31842911    1.28297507
C      0.15161918   -0.72984010    0.24928592
C     -0.26539189    0.02759141   -0.78067289
C      0.66071438    0.85367363   -1.61962383
O     -1.50938366   -0.29140643    1.94151752
H      0.16247770    1.20004052   -2.53020064
H      1.54717362    0.28365329   -1.91532129
H      2.01348268    2.56398141   -1.19371480
O     -1.70688436   -2.20646704    0.68229122
H     -0.23783760   -1.87190813    2.04478240
H     -2.26261802   -1.65431832    0.11266952
O      7.08123092   -0.02676673    0.10665056
H     -1.32790030    0.17785652   -0.95308147
H      6.71862488    0.22047419   -0.75726483
O      1.51663935   -0.85097341    0.47830678
H      6.29688707   -0.19370745    0.65061427
H      1.65856766   -1.35853580    1.29765072
H     -1.19282363    0.56273143    1.59367842
