20

O     -0.83271956   -1.34915480    2.32162128
C     -0.16417355   -2.08461481    1.59755414
C      0.40579505   -1.73424071    0.21994669
C      0.46936281   -0.24745875   -0.05952298
C     -0.60345305    0.56583253   -0.10183921
C     -0.63903224    2.03367945   -0.39055809
O      0.63378382    2.48589309   -0.84427806
H     -0.90738733    2.58914710    0.51296865
H     -1.37753299    2.23936552   -1.17142441
H      0.05335560   -3.11787807    1.91969509
O     -0.33923694   -2.40574409   -0.79341522
H      1.42114996   -2.14654716    0.19496844
H     -0.43240999   -1.78365335   -1.53567798
O      7.53931498   -0.36545960    0.08881824
H     -1.57939427    0.13291150    0.11763009
H      7.83997038    0.21738187   -0.62452820
O      1.74219190    0.22741623   -0.32595015
H      6.84972945    0.14807773    0.53570996
H      1.64642159    1.18694496   -0.53016269
H      0.50327920    3.40810132   -1.13155557
20

O     -1.48869940    0.27175498   -1.75010800
C     -0.70726219    0.65875425   -0.61494504
C     -0.97095755   -0.25102272    0.60116665
C      0.39566899   -0.41564362    1.18624371
C      1.37025441    0.01489388    0.38056553
C      0.80178315    0.50579076   -0.90909831
O      1.39359965    1.75205088   -1.23975291
H     -1.75718569   -0.65423629   -1.56331305
H      1.00250354   -0.20187064   -1.72081696
H     -0.94608034    1.70304613   -0.37932892
O     -1.46028234   -1.52342114    0.17625711
H     -1.68484115    0.20125254    1.29573099
H     -1.33444477   -2.11199387    0.94511016
O      7.42838237   -0.02676673    0.10665056
H      2.43048327   -0.02586256    0.57742502
H      7.06577633    0.22047419   -0.75726483
O      0.54553214   -0.99694478    2.41122505
H      6.64403852   -0.19370745    0.65061427
H      1.49563665   -0.99928986    2.62916268
H      0.91429162    2.07274204   -2.02552373
