20

O     -1.52321854   -2.01701251   -0.04340522
C     -0.99436556   -0.70686899   -0.33856280
C     -1.33879507    0.38201916    0.71911053
C      0.13503656    0.91408592    0.56272220
C      0.50382164   -0.48164295   -0.02537380
C      1.42942909   -0.51930265   -1.22609406
O      2.69813572    0.02312775   -0.88723180
H      1.03059937    0.04331074   -2.07585209
H      1.58597337   -1.55234307   -1.55257640
H     -1.28993648   -0.39958654   -1.35004969
O     -1.74171552   -0.11931523    2.01658632
H     -2.09416323    1.09151319    0.36286048
H     -1.84121368   -1.08260405    1.87374676
O      0.29775262    2.03765154   -0.32711500
H     -1.18329530   -2.60042684   -0.74607893
H     -0.38191032    1.94821923   -1.01606056
O      0.82312141    1.21078472    1.78806178
H      0.87427521   -1.16676386    0.75226711
H      0.45837249    2.07290114    2.04598905
H      2.55209620    0.92225328   -0.53294389