20

O     -2.79010531   -0.56569882   -1.03397094
C     -1.74936579   -0.96453242   -0.51312998
C     -1.26522379   -0.46157245    0.82702427
C      0.22831749   -0.03988322    0.77267613
C      0.48765497    1.11302434   -0.22101343
C      0.96680833    0.66391008   -1.59772597
O      2.38650776    0.55096099   -1.58540652
H      0.68890491    1.39053278   -2.36729339
H      0.55780477   -0.30546404   -1.89323727
H     -1.14179743   -1.75033814   -0.99042181
O     -1.45937544   -1.47362677    1.82584665
H     -1.87675592    0.39622699    1.13120890
H     -2.40781138   -1.69983449    1.81794459
O      0.58296946    0.41277853    2.07821820
H      1.23497902    1.79429606    0.20723377
H      0.21934339   -0.27643084    2.66967630
O      1.06559768   -1.15364005    0.52128294
H     -0.42866065    1.70576878   -0.32817726
H      1.95257538   -0.79075833    0.33405679
H      2.74763254    1.45428103   -1.65479198