20

O     -1.83530344    0.97419645    2.51888936
C     -1.59275826    0.95219795    1.31203933
C     -0.77288488   -0.13169297    0.50950569
C      0.00736638    0.43501305   -0.72938697
C      1.19202624   -0.48484540   -0.32339676
C      0.62094984   -0.48597165    1.10762452
O      6.82386679    0.00171390   -0.38971698
H      0.67684198   -1.45106152    1.62028753
H      1.04386633    0.28253088    1.76512787
H     -1.96598611    1.77790277    0.68241876
O     -1.58939316   -1.29677463    0.18785730
H      6.42189128    0.54570463    0.30414956
H     -1.92401021   -1.10782256   -0.71113108
O      2.50494644    0.08430270   -0.48386412
H      1.14507951   -1.47742338   -0.79072846
H      2.82293230   -0.23872097   -1.34510388
O     -0.61145169    0.17374567   -2.01108501
H      0.24246132    1.50385495   -0.64113411
H      0.03531741    0.49056867   -2.66791999
H      7.46536451   -0.54741852    0.08556742