20

O     -2.81478577    1.09320321    1.21993302
C     -1.59233839    0.94138693    1.25960897
C     -0.74781829   -0.15142909    0.49682036
C      0.01245128    0.40265581   -0.76046968
C      1.21825803   -0.48207660   -0.33737241
C      0.65616795   -0.45846684    1.09729434
O      6.84414020    0.33989949   -0.19843595
H      0.73544503   -1.40981526    1.63259192
H      1.06888041    0.33261832    1.73360288
H     -0.98934253    1.62971422    1.87588799
O     -1.53187509   -1.35288448    0.24057768
H      7.68625928   -0.07724574    0.03775530
H     -2.24627897   -1.03779011   -0.34765824
O      2.52030932    0.10887470   -0.51039605
H      1.19101537   -1.48643415   -0.78031134
H      2.82023452   -0.18899362   -1.38739748
O     -0.58080368    0.11806951   -2.04707388
H      0.22721564    1.47741690   -0.68626578
H      0.05326516    0.46395054   -2.69937232
H      6.17561505   -0.26265375    0.16068065