20

O     -1.88774384   -1.45784041    2.01540878
C     -0.92565133   -1.92383381    1.41004334
C     -0.49105464   -1.58534368   -0.02197079
C     -0.33084166   -0.08679432   -0.17446634
C      0.83583882    0.54736495    0.04095890
C      1.06879994    2.01820364   -0.02456195
O      1.71806902    2.29086357   -1.25285076
H      1.71729151    2.33010070    0.80045983
H      0.14266715    2.59785808    0.03100770
H     -0.31166376   -2.70590043    1.88904238
O     -1.35461835   -2.09297593   -1.02748915
H      0.48067979   -2.07061344   -0.17284196
H     -1.65627742   -2.97169968   -0.74887466
O      7.62809848   -0.36545960    0.08881824
H      1.70685375   -0.03391477    0.33364332
H      7.92875388    0.21738187   -0.62452820
O     -1.45197624    0.59585624   -0.61315094
H      6.93851295    0.14807773    0.53570996
H     -1.15522987    1.30219851   -1.21287909
H      1.89485712    3.24647077   -1.27147863
20

O      0.17796164   -2.70194051   -0.70690176
C     -0.40782176   -1.61899932   -0.64703009
C      0.13434928   -0.43675692    0.15457567
C     -1.05100451    0.38703196    0.62209794
C     -1.60775143    1.42504503   -0.01223115
C      1.17977614    0.27192919   -0.73487476
O      1.68774811    1.46314687   -0.13464092
H      0.76163451    0.53223302   -1.71372033
H      2.03762591   -0.39103201   -0.89866652
H     -1.31992613   -1.43797118   -1.24150885
O      0.75737902   -0.96361608    1.34470131
H     -2.43339984    1.96279460    0.44517518
H      1.32734526   -1.69785555    1.04184971
O      7.42569928   -0.02676673    0.10665056
H     -1.24850392    1.78958379   -0.96711385
H      7.06309324    0.22047419   -0.75726483
O     -1.54639536    0.04382469    1.87408198
H      6.64135543   -0.19370745    0.65061427
H     -0.81456746   -0.45525984    2.30303801
H      2.36555054    1.82784225   -0.72883158
