20

O     -1.88774384   -1.45784041    2.01540878
C     -0.92565133   -1.92383381    1.41004334
C     -0.49105464   -1.58534368   -0.02197079
C     -0.33084166   -0.08679432   -0.17446634
C      0.83583882    0.54736495    0.04095890
C      1.06879994    2.01820364   -0.02456195
O      1.71806902    2.29086357   -1.25285076
H      1.71729151    2.33010070    0.80045983
H      0.14266715    2.59785808    0.03100770
H     -0.31166376   -2.70590043    1.88904238
O     -1.35461835   -2.09297593   -1.02748915
H      0.48067979   -2.07061344   -0.17284196
H     -1.65627742   -2.97169968   -0.74887466
O      7.62809848   -0.36545960    0.08881824
H      1.70685375   -0.03391477    0.33364332
H      7.92875388    0.21738187   -0.62452820
O     -1.45197624    0.59585624   -0.61315094
H      6.93851295    0.14807773    0.53570996
H     -1.15522987    1.30219851   -1.21287909
H      1.89485712    3.24647077   -1.27147863