20

O     -2.58420988   -0.72801400    1.35605937
C     -1.54989821   -0.07710903    1.49531812
C     -0.17583934   -0.65542355    1.18958007
C      0.55079352    0.20813741    0.18923145
C      0.01737632    0.35397115   -1.21981683
C      1.30677428   -0.37538362   -0.98073168
O      6.66172546   -0.14541384    0.05166929
H      1.30755678   -1.45121102   -1.11615951
H      2.23409581    0.09826254   -1.27757627
H     -1.56554915    0.95561014    1.88354380
O     -0.30295927   -1.99769299    0.71325841
H      0.38425660   -0.69069076    2.13007059
H     -1.23637693   -2.25028457    0.86442158
O      0.14750149    1.67648052   -1.77586228
H     -0.85339887   -0.23312568   -1.49625864
H      0.03975645    1.65258614   -2.74408058
O      1.11053229    1.41869521    0.74711510
H      6.96064380    0.49925086   -0.60712981
H      1.16958811    2.09519211    0.04188732
H      7.46279672   -0.35383702    0.55546052
20

O     -2.95949540    0.15859514   -0.17708734
C     -2.05739710    0.28954857    0.64994982
C     -0.85398301   -0.63536776    0.71342325
C      0.40030066   -0.04811300    0.09379980
C      0.60059913    1.46172178   -0.02684378
C      1.26059388   -0.98124045   -0.71272997
O      7.38314205    0.14218672   -0.07618027
H      0.74094194   -1.27783222   -1.62977019
H      2.21257755   -0.52693168   -1.00524300
H     -2.07013752    1.11389155    1.38206091
O     -1.20718791   -1.86219865    0.06424078
H     -0.67758137   -0.87848760    1.76677718
H     -1.83600610   -1.62489312   -0.64734520
O      1.55008163    1.92684178   -0.99181354
H     -0.20975814    2.13793574    0.21464298
H      2.44293735    1.91034076   -0.60424972
O      1.16862615    0.71917414    1.04748084
H      6.97153806   -0.66219620   -0.42619637
H      1.49488825   -1.88298495   -0.13729283
H      6.70381674    0.52000947    0.50237663
