20

O     -2.95949540    0.15859514   -0.17708734
C     -2.05739710    0.28954857    0.64994982
C     -0.85398301   -0.63536776    0.71342325
C      0.40030066   -0.04811300    0.09379980
C      0.60059913    1.46172178   -0.02684378
C      1.26059388   -0.98124045   -0.71272997
O      7.38314205    0.14218672   -0.07618027
H      0.74094194   -1.27783222   -1.62977019
H      2.21257755   -0.52693168   -1.00524300
H     -2.07013752    1.11389155    1.38206091
O     -1.20718791   -1.86219865    0.06424078
H     -0.67758137   -0.87848760    1.76677718
H     -1.83600610   -1.62489312   -0.64734520
O      1.55008163    1.92684178   -0.99181354
H     -0.20975814    2.13793574    0.21464298
H      2.44293735    1.91034076   -0.60424972
O      1.16862615    0.71917414    1.04748084
H      6.97153806   -0.66219620   -0.42619637
H      1.49488825   -1.88298495   -0.13729283
H      6.70381674    0.52000947    0.50237663