9

C     -6.62263846    0.46221271   -0.33817347
C     -5.80536473    1.50582662   -0.48256655
H     -5.95307702    2.11252249    1.32570498
H     -7.10497761    0.22864052    0.60382771
H     -6.82712555   -0.19105383   -1.18078822
O     -5.48782084    2.38142251    0.51477172
H     -5.11994643    2.02144483    0.84299602
H     -5.30971154    1.76349983   -1.41101148
H     -4.71669082    1.42014844    0.99605666
9

C     -6.66637790    0.43904904   -0.25719374
C     -5.94835373    1.49956258   -0.06218724
H     -5.71542294    1.98359630    0.31478371
H     -7.24457062    0.01691667    0.55348697
H     -6.69122145   -0.02949242   -1.23164652
O     -5.29740349    2.46101266    0.11461172
H     -5.11994643    2.02144483    0.84299602
H     -5.54736563    1.89242602   -0.40009021
H     -4.71669082    1.42014844    0.99605666
