20

O     -3.61541452   -0.48182740    1.37815692
C     -2.59908077   -0.95012752    0.86194668
C     -1.66018866   -0.10422979    0.01710350
C     -0.20286867   -0.58225911    0.17420515
C      0.82338762    0.40736810   -0.40975404
C      2.18504242   -0.25589357   -0.64971712
O      2.97417667    0.59407840   -1.48775635
H      2.09537465   -1.23024400   -1.13846102
H      2.73624427   -0.37459855    0.28883454
H     -2.37420760   -2.02757340    0.92059800
O     -1.83439624    1.27076273    0.33977905
H     -1.96005490   -0.23150315   -1.02936426
H     -2.74745948    1.36388217    0.68014598
O      1.02891061    1.47929264    0.52924658
H      0.45235215    0.84573190   -1.34305396
H      1.71717873    2.05309416    0.14187963
O      0.11267875   -0.79662286    1.55646365
H     -0.11819717   -1.55483337   -0.32591888
H      0.32595917    0.10120779    1.89755331
H      2.66056296    0.47429484   -2.40188736
20

O     -2.62189125   -1.96370746   -0.29854010
C     -2.46494021   -0.82857114    0.14642028
C     -1.13972731   -0.07555963    0.18412865
C     -1.41328534    1.38319456   -0.21559529
C      1.03970746   -0.99536630   -0.06182023
C      1.82231150    0.20732167    0.50423443
O      2.97652317   -0.23543820    1.22360279
H      1.21832376    0.80510406    1.19121957
H      2.16357993    0.86352116   -0.30336812
H     -3.31091081   -0.30782285    0.62827079
O     -0.18372151   -0.66101176   -0.69822219
H     -0.80457643   -0.12130580    1.22760555
H     -2.17534713    1.44270808   -0.99992475
O      1.86776939   -1.61111388   -1.04521483
H      0.86576319   -1.74593122    0.71803460
H      1.23870310   -2.14412190   -1.56233421
O     -0.23946187    2.04106652   -0.68057688
H     -1.78149989    1.93943544    0.65302118
H     -0.51884936    2.81143134   -1.20563916
H      3.46152962   -0.80383271    0.59469790
