9

C      0.38416068   -0.33548681    0.55222312
C     -0.36498519    0.30995312   -0.57947914
H      1.43663329   -0.11090146    0.66883059
H      0.17306013    0.97775157   -1.23999933
H      5.32091990    0.04328575   -0.06105383
O     -0.54792377    0.72960417    0.77881835
H     -1.17226075   -0.24113165   -1.04460948
H      4.59621645   -0.04328575    0.06105383
H      0.09131561   -1.32978895    0.86421589