9

C      0.38416062   -0.33548680    0.55222311
C     -0.36498515    0.30995314   -0.57947910
H      1.43663333   -0.11090162    0.66883035
H      0.17306001    0.97775183   -1.23999924
H      5.32091985    0.04328575   -0.06105383
O     -0.54792375    0.72960415    0.77881833
H     -1.17226054   -0.24113182   -1.04460960
H      4.59621640   -0.04328575    0.06105383
H      0.09131549   -1.32978887    0.86421615