20

O     -2.58305301    1.58323385    0.82149104
C     -1.57155619    1.01255430    1.23331837
C     -0.76255785   -0.12027842    0.49651517
C      0.03508522    0.38117850   -0.75962601
C      1.20836984   -0.52715748   -0.29855815
C      0.61629811   -0.47989241    1.12231101
O      6.55633633    0.13799785   -0.15943524
H      0.64955284   -1.43187341    1.66110891
H      1.04611235    0.29736094    1.76459001
H     -1.15938900    1.29764538    2.21595126
O     -1.60151239   -1.28195351    0.23369691
H      6.94361818    0.35857330    0.70098340
H     -2.16212073   -0.98776715   -0.51248064
O      2.52913192    0.02754255   -0.44739865
H      1.16649105   -1.53450959   -0.73342564
H      2.81306455   -0.23016670   -1.34225092
O     -0.54888582    0.06922465   -2.04583253
H      0.27512941    1.45178575   -0.71099367
H      0.04983970    0.47307279   -2.69841647
H      7.18105459   -0.49657115   -0.54154816