20

O      3.34559572    0.69759912    1.29922001
C      2.17439006    1.07461329    1.36357011
C      1.20540228    0.94177656    0.19491042
C     -0.15964052    0.44508487    0.69713037
C     -1.17513295    0.08744416   -0.41802475
C     -1.02926264   -1.33648269   -0.98681972
O     -2.33883424   -1.91251707   -1.11293341
H     -0.46292416   -2.00370617   -0.33283455
H     -0.57181485   -1.33116799   -1.98087219
H      1.78644170    1.57666685    2.26573219
O      1.74203480    0.09110549   -0.81168339
H      1.09012666    1.94381984   -0.23595283
H      2.58558606   -0.25642396   -0.45769587
O     -1.15626844    1.02885988   -1.49892973
H     -2.17437448    0.16559499    0.02876244
H     -1.19093873    1.93022173   -1.14436762
O      0.01563509   -0.63971029    1.61919043
H     -0.59417884    1.26135602    1.28858699
H     -0.85996505   -1.01652801    1.82306623
H     -2.23187749   -2.74760660   -1.60005512