20

O     -2.52306257   -0.14733468    0.82429810
C     -1.72110120   -0.41261539    1.70219746
C     -0.22880460   -0.52701659    1.59835540
C      0.31113476   -0.60184540    0.16991047
C     -0.07138172    0.58533752   -0.74765511
C      0.83687919    0.73022769   -1.98112861
O      1.13496452   -0.52719221   -2.57655800
H      1.78199168    1.21443600   -1.70903282
H      0.35265281    1.37404923   -2.72386914
H      0.22868503    0.30689196    2.14317396
O     -2.14787772   -0.63781907    2.96295410
H      0.07481602   -1.44381532    2.12105858
H     -3.11754193   -0.50437942    2.91461591
O     -0.03015406    1.82221535   -0.02545348
H     -1.09874919    0.44019576   -1.09826636
H      0.83675269    1.85635995    0.41907129
O      1.74598107   -0.66158314    0.29479886
H     -0.01086799   -1.54184076   -0.29546991
H      2.06836113   -0.98978072   -0.56931208
H      1.57732205   -0.33449078   -3.42368864
20

O     -0.87983802    0.49507462   -0.84308007
C     -1.63232974   -0.04245802    0.22697180
C     -0.66963993   -0.21713700    1.37230972
C      0.57791054   -0.68840567    0.66065610
C      0.44734600   -0.07400919   -0.74675559
C      1.48107636    0.98346756   -1.13608206
O      2.76203612    0.42358140   -1.40495967
H      1.58327410    1.74185676   -0.35270111
H      1.15408627    1.51460919   -2.03738959
H     -0.48764766    0.73161788    1.89201041
O     -2.19085720   -1.27127471   -0.15198474
H     -1.01287504   -0.93920800    2.12059554
H     -3.02085914   -1.00820252   -0.57911791
O     -2.66801934    0.83610181    0.55281799
H      0.48875462   -0.89009476   -1.47961872
H     -2.64066470    1.47642567   -0.17845650
O      1.73265066   -0.29447408    1.38195644
H      0.58880578   -1.78174002    0.57648860
H      1.72785189   -0.75932292    2.23642485
H      2.65893844   -0.23640800   -2.11008549
