20

O     -2.52306257   -0.14733468    0.82429810
C     -1.72110120   -0.41261539    1.70219746
C     -0.22880460   -0.52701659    1.59835540
C      0.31113476   -0.60184540    0.16991047
C     -0.07138172    0.58533752   -0.74765511
C      0.83687919    0.73022769   -1.98112861
O      1.13496452   -0.52719221   -2.57655800
H      1.78199168    1.21443600   -1.70903282
H      0.35265281    1.37404923   -2.72386914
H      0.22868503    0.30689196    2.14317396
O     -2.14787772   -0.63781907    2.96295410
H      0.07481602   -1.44381532    2.12105858
H     -3.11754193   -0.50437942    2.91461591
O     -0.03015406    1.82221535   -0.02545348
H     -1.09874919    0.44019576   -1.09826636
H      0.83675269    1.85635995    0.41907129
O      1.74598107   -0.66158314    0.29479886
H     -0.01086799   -1.54184076   -0.29546991
H      2.06836113   -0.98978072   -0.56931208
H      1.57732205   -0.33449078   -3.42368864