20

O     -1.16923130   -2.87933272    2.33172582
C     -1.24398978   -1.92841604    1.55295935
C     -0.19573961   -1.61646506    0.48308652
C     -0.04747056   -0.13302763    0.20771509
C      0.71310897    0.34322149   -0.79684762
C      0.93737335    1.77461799   -1.16577429
O      0.72599142    2.60443920   -0.02763943
H      0.24192165    2.07827664   -1.95367206
H      1.96299758    1.91372951   -1.52165719
H     -2.15725575   -1.31021645    1.52715026
O     -0.52517729   -2.29117892   -0.72998923
H      0.76212529   -2.00853990    0.84352121
H     -1.36335084   -1.91346913   -1.04530320
O      7.75531695    0.00058797    0.18234835
H      1.23793755   -0.37585954   -1.42510658
H      6.90805213   -0.32211024    0.52435593
O     -0.75632301    0.72552790    1.02978711
H      7.54189810    0.32152226   -0.70670428
H     -0.42604459    1.63544992    0.83893401
H      1.30312691    3.38124273   -0.14888977