20

O     -2.26678312    1.85110691    0.79592136
C     -1.56723537    0.96489378    1.28818660
C     -0.75311882   -0.14112034    0.51863480
C      0.00021089    0.37622085   -0.75842088
C      1.21460469   -0.48616984   -0.31680791
C      0.64826559   -0.46048079    1.11411025
O      6.82524311    0.00171390   -0.38971698
H      0.72174429   -1.41112354    1.65099717
H      1.06363131    0.33022604    1.74985139
H     -1.46672556    0.90806462    2.38542596
O     -1.57083084   -1.32018035    0.26638263
H      6.42326760    0.54570463    0.30414956
H     -1.98939531   -1.11950531   -0.59616877
O      2.51197898    0.11325291   -0.49256690
H      1.20097578   -1.49520798   -0.74962441
H      2.76367864   -0.09234687   -1.41022097
O     -0.60786048    0.01537613   -2.02248361
H      0.20071969    1.45538562   -0.73134926
H     -0.10386036    0.51160814   -2.69186744
H      7.46674083   -0.54741852    0.08556742
20

O      1.84006280    1.53346755    0.09716667
C      1.65827334    0.77972459   -0.85592896
C     -0.49383054   -0.11985606    1.37458876
C     -0.68663683    0.02593173   -0.11416416
C      0.55257171   -0.25591742   -0.98196956
C     -0.29450815    0.89646433    2.21906616
O      7.29898142    0.25755964   -0.18146835
H     -0.21694105    0.72603556    3.28712329
H     -0.19846044    1.91820114    1.86524855
H      2.38750272    0.77482963   -1.68309666
O     -0.67316857   -1.39573905    1.88093558
H      6.79183014    0.38851734    0.63376699
H     -1.22491112   -1.84798002    1.20574397
O      0.11057424   -0.27244097   -2.35838356
H      0.96643560   -1.24878520   -0.77404841
H      0.83064349   -0.64500858   -2.89835448
O     -1.68754459   -0.96544866   -0.46422514
H     -1.11889512    1.00289496   -0.36065186
H     -1.75116749   -0.90637353   -1.43905019
H      7.07750270   -0.64607698   -0.45229864
