20

O     -2.01072724   -1.50679170    1.74254957
C     -0.86561198   -1.95495355    1.69323843
C      0.17649721   -1.60310487    0.63109567
C      0.23059069   -0.12721182    0.29375486
C      0.34084761    0.37089692   -0.95381815
C      0.44638336    1.80649078   -1.36942700
O      0.15712438    2.67166601   -0.27605215
H     -0.26322030    2.01456140   -2.17592100
H      1.46030353    2.01919942   -1.72265801
H     -0.55972068   -2.76506915    2.37747783
O     -0.10269630   -2.40488344   -0.51661988
H      1.15476651   -1.90112922    1.02365601
H     -1.02997850   -2.20857450   -0.74981491
O      7.82271973    0.00058797    0.18234835
H      0.39774032   -0.32968432   -1.78531179
H      6.97545491   -0.32211024    0.52435593
O      0.21778780    0.71484464    1.39384791
H      7.60930088    0.32152226   -0.70670428
H      0.14155503    1.63307329    1.04338999
H      0.10835857    3.57067012   -0.64938738
20

O     -1.85840937    2.04510095    0.15660282
C     -1.77522690    0.85917975    0.47405229
C     -0.77408948   -0.16214138   -0.10189432
C      0.43825708   -0.19154775    0.77658766
C      1.54767462   -0.02637035    0.06091276
C      1.16504406    0.11132295   -1.36499909
O     -0.27064974    0.19568630   -1.39183939
H      1.47750117   -0.75981341   -1.94927189
H      1.57795129    1.01755164   -1.81599896
H     -2.44016116    0.44742356    1.25380204
O     -1.32593436   -1.45760385   -0.20226829
H     -0.07595108   -2.99435880    1.80145243
H     -1.94479321   -1.38612610   -0.94761845
O      5.94906648   -4.08627828    0.10665056
H      2.56201122   -0.01096195    0.42474286
H      5.58646044   -3.83903736   -0.75726483
O      0.35858083   -0.35322648    2.13262348
H      5.16472263   -4.25321900    0.65061427
H      1.26224399   -0.32847387    2.49456646
H      0.66268181   -3.02877308    1.83038524
