20

O     -1.85840937    2.04510095    0.15660282
C     -1.77522690    0.85917975    0.47405229
C     -0.77408948   -0.16214138   -0.10189432
C      0.43825708   -0.19154775    0.77658766
C      1.54767462   -0.02637035    0.06091276
C      1.16504406    0.11132295   -1.36499909
O     -0.27064974    0.19568630   -1.39183939
H      1.47750117   -0.75981341   -1.94927189
H      1.57795129    1.01755164   -1.81599896
H     -2.44016116    0.44742356    1.25380204
O     -1.32593436   -1.45760385   -0.20226829
H     -0.07595108   -2.99435880    1.80145243
H     -1.94479321   -1.38612610   -0.94761845
O      5.94906648   -4.08627828    0.10665056
H      2.56201122   -0.01096195    0.42474286
H      5.58646044   -3.83903736   -0.75726483
O      0.35858083   -0.35322648    2.13262348
H      5.16472263   -4.25321900    0.65061427
H      1.26224399   -0.32847387    2.49456646
H      0.66268181   -3.02877308    1.83038524