20

O     -2.01072724   -1.50679170    1.74254957
C     -0.86561198   -1.95495355    1.69323843
C      0.17649721   -1.60310487    0.63109567
C      0.23059069   -0.12721182    0.29375486
C      0.34084761    0.37089692   -0.95381815
C      0.44638336    1.80649078   -1.36942700
O      0.15712438    2.67166601   -0.27605215
H     -0.26322030    2.01456140   -2.17592100
H      1.46030353    2.01919942   -1.72265801
H     -0.55972068   -2.76506915    2.37747783
O     -0.10269630   -2.40488344   -0.51661988
H      1.15476651   -1.90112922    1.02365601
H     -1.02997850   -2.20857450   -0.74981491
O      7.82271973    0.00058797    0.18234835
H      0.39774032   -0.32968432   -1.78531179
H      6.97545491   -0.32211024    0.52435593
O      0.21778780    0.71484464    1.39384791
H      7.60930088    0.32152226   -0.70670428
H      0.14155503    1.63307329    1.04338999
H      0.10835857    3.57067012   -0.64938738