20

O     -2.45309493    0.78406954    2.15164460
C     -1.58223812    0.95833562    1.29906576
C     -0.73747094   -0.13749096    0.52841784
C     -0.02034968    0.38993174   -0.76721362
C      1.20658460   -0.46925414   -0.35202843
C      0.69005286   -0.38785773    1.09950403
O      7.05424405    0.33989949   -0.19843595
H      0.80785520   -1.30896580    1.67812737
H      1.10064349    0.44514963    1.68205669
H     -1.34183337    1.99366115    1.00270076
O     -1.49583975   -1.36411682    0.31154201
H      7.89636313   -0.07724574    0.03775530
H     -2.13985097   -1.12657659   -0.38167127
O      2.49456671    0.12622910   -0.59880840
H      1.17271145   -1.49145834   -0.75161563
H      2.79993026   -0.26249303   -1.43753380
O     -0.66335921    0.05775609   -2.01865139
H      0.18918531    1.46745309   -0.73954082
H     -0.02749292    0.32562743   -2.70599571
H      6.38571890   -0.26265375    0.16068065
20

O     -1.45737403    1.93935368    1.95590859
C     -0.53567995    1.41588404    1.33686622
C     -0.56410839   -0.00392233    0.57219952
C     -0.27656571    0.08561727   -0.97238304
C      1.10011829   -0.55929899   -0.74119154
C      0.70866527   -0.89087316    0.70204553
O      7.13023884    0.25755964   -0.18146835
H      0.49134097   -1.95341520    0.86386008
H      1.43344434   -0.57796646    1.45975717
H      1.93765465    0.14060189   -0.82901023
O     -1.78237145   -0.75541803    0.86741754
H      6.62308757    0.38851734    0.63376699
H     -2.12667124   -0.99477021   -0.01753472
O      0.64910514    2.09622595    1.24341409
H      1.31640397   -1.43442935   -1.36182695
H      1.36408378    1.63754281    0.77075363
O     -1.19231095   -0.67489351   -1.79544447
H     -0.21001336    1.11274563   -1.34941229
H     -0.85572135   -0.58298402   -2.70541914
H      6.90876013   -0.64607698   -0.45229864
