20

O     -2.45309493    0.78406954    2.15164460
C     -1.58223812    0.95833562    1.29906576
C     -0.73747094   -0.13749096    0.52841784
C     -0.02034968    0.38993174   -0.76721362
C      1.20658460   -0.46925414   -0.35202843
C      0.69005286   -0.38785773    1.09950403
O      7.05424405    0.33989949   -0.19843595
H      0.80785520   -1.30896580    1.67812737
H      1.10064349    0.44514963    1.68205669
H     -1.34183337    1.99366115    1.00270076
O     -1.49583975   -1.36411682    0.31154201
H      7.89636313   -0.07724574    0.03775530
H     -2.13985097   -1.12657659   -0.38167127
O      2.49456671    0.12622910   -0.59880840
H      1.17271145   -1.49145834   -0.75161563
H      2.79993026   -0.26249303   -1.43753380
O     -0.66335921    0.05775609   -2.01865139
H      0.18918531    1.46745309   -0.73954082
H     -0.02749292    0.32562743   -2.70599571
H      6.38571890   -0.26265375    0.16068065