20

O     -2.66863162    1.43164217    0.88773937
C     -1.55845929    1.02661379    1.23775444
C     -0.71682566   -0.11796044    0.55786563
C     -0.04099961    0.30691955   -0.79443880
C      1.22016311   -0.47655529   -0.33569929
C      0.72322625   -0.31928685    1.11365873
O      7.14704254    0.25755964   -0.18146835
H      0.86115875   -1.20552825    1.74073020
H      1.13798107    0.54714360    1.64148598
H     -1.07259150    1.48852519    2.11358282
O     -1.48189311   -1.35485174    0.47173400
H      6.63989126    0.38851734    0.63376699
H     -2.13996459   -1.16233901   -0.22626682
O      2.48685029    0.13972474   -0.63571228
H      1.21752121   -1.52387156   -0.66551963
H      2.73355966   -0.20183390   -1.51337630
O     -0.68382989   -0.16307051   -2.00172777
H      0.12781268    1.39005945   -0.86267372
H     -0.14507772    0.19466905   -2.72913656
H      6.92556383   -0.64607698   -0.45229864
20

O     -2.57531275    1.00041326    1.15459268
C     -1.35353669    1.06337480    1.04168225
C     -0.48159922   -0.07121237    0.52249343
C      0.05177952    0.28036145   -0.86409108
C      1.37466275   -0.46020368   -0.87423921
C      0.79851516   -0.19963099    1.35205397
O      7.07124204    0.25755964   -0.18146835
H      0.80791260   -1.10935108    1.96155760
H      0.98035596    0.65757709    2.00806112
H     -0.82519912    2.00313187    1.27980013
O     -1.16663241   -1.32080881    0.48331152
H      6.56409077    0.38851734    0.63376699
H     -1.85591013   -1.21092991   -0.20331895
O      1.91553929   -0.27016511    0.43639479
H      1.24949242   -1.53224104   -1.06622149
H      2.06611285   -0.06321284   -1.62327063
O     -0.83306959   -0.12905324   -1.90011039
H      0.22690855    1.35944739   -0.95658345
H     -0.38001919    0.00250320   -2.75211230
H      6.84976333   -0.64607698   -0.45229864
