20

O     -2.66863162    1.43164217    0.88773937
C     -1.55845929    1.02661379    1.23775444
C     -0.71682566   -0.11796044    0.55786563
C     -0.04099961    0.30691955   -0.79443880
C      1.22016311   -0.47655529   -0.33569929
C      0.72322625   -0.31928685    1.11365873
O      7.14704254    0.25755964   -0.18146835
H      0.86115875   -1.20552825    1.74073020
H      1.13798107    0.54714360    1.64148598
H     -1.07259150    1.48852519    2.11358282
O     -1.48189311   -1.35485174    0.47173400
H      6.63989126    0.38851734    0.63376699
H     -2.13996459   -1.16233901   -0.22626682
O      2.48685029    0.13972474   -0.63571228
H      1.21752121   -1.52387156   -0.66551963
H      2.73355966   -0.20183390   -1.51337630
O     -0.68382989   -0.16307051   -2.00172777
H      0.12781268    1.39005945   -0.86267372
H     -0.14507772    0.19466905   -2.72913656
H      6.92556383   -0.64607698   -0.45229864