20

O     -1.56437137    0.62312821    2.05529210
C     -1.62369347   -0.20443370    1.14715905
C     -0.42274609   -0.97264629    0.60818292
C      0.53534394   -0.12451120   -0.19440312
C      0.53037283    1.20658386   -0.32334964
C      0.35914496   -4.95797473    1.43113735
O      1.25336028   -4.12783457    0.71312010
H      0.87344808   -5.38889113    2.29364795
H     -0.48491757   -4.35626828    1.77628780
H     -2.57678418   -0.38646484    0.62155678
O     -0.89744530   -2.03314394   -0.22425547
H      0.09900875   -1.42875475    1.45585479
H     -0.20240404   -2.15872829   -0.90062097
O      1.45602685    1.83989150   -1.11567310
H     -0.16915326    1.88044823    0.15598545
H      1.27050650    2.79763779   -1.08176818
O      1.49688076   -0.85623111   -0.88798526
H     -0.00646708   -5.75308946    0.77673564
H      2.06845807   -0.18277547   -1.31597538
H      1.99126246   -4.68903267    0.41982622
20

O     -1.22603691    1.97656407    0.71434213
C     -0.55450004    1.25937661   -0.02342902
C     -0.24138477   -0.19135716    0.29309537
C      2.07174873    4.48933053    0.21726107
C      0.97656793    5.19086775    0.51075352
C      1.17267917   -0.53116438   -0.14113996
O      2.03720279    3.13339311    0.08347644
H      1.40682399   -1.57399321    0.09778366
H      1.28963904   -0.42114948   -1.22533964
H     -0.21725537    1.62174842   -1.00970500
O     -1.14979252   -1.03563987   -0.40001414
H     -0.35330588   -0.35742767    1.36962362
H     -2.03333214   -0.86323494   -0.02439325
O      1.00754691    6.55544093    0.64456649
H      0.00524565    4.73975588    0.66031549
H      0.10029998    6.84844481    0.84971052
O      3.28216633    5.10291935    0.03622667
H      1.90646543    0.11627760    0.34917624
H      3.09614881    6.05428783    0.17351646
H      2.96161842    2.91000592   -0.12821922
