20

O     -1.68053223   -1.60709721    0.93619212
C     -0.94946003   -1.61354815   -0.04906609
C      0.53386066   -1.33399888   -0.00351570
C      0.87272997    0.15598099    0.27390880
C      0.10305162    1.21588268   -0.54061891
C     -1.40879473    1.36465452   -0.34907650
O     -1.82284620    1.37598968    1.00319562
H     -1.96972902    0.59812094   -0.88950245
H     -1.71965852    2.32262258   -0.78080102
H     -1.37590909   -1.74709349   -1.06040712
O      1.06239109   -1.78807936   -1.25719435
H      0.96403288   -1.96237587    0.78682244
H      1.37136598   -2.70201410   -1.11756456
O      0.76317485    0.43954511    1.65635860
H      0.31372755    1.08440414   -1.60937333
H      1.49721271   -0.04544217    2.07175313
O      2.27468987    0.32204752    0.01751982
H      0.53257132    2.19394193   -0.27837125
H      2.42738380    1.26479213   -0.16156820
H     -1.78926247    0.46166701    1.35130895
20

O      0.96574919   -0.16690770    0.98424797
C      0.19697500    0.74631047    0.16281432
C     -1.34247668    0.69549353    0.41694663
C     -1.39150644   -0.39300320   -0.72713919
C     -0.10121022    0.26625741   -1.27825318
C      2.35026567   -0.25313960    0.70238882
O      2.76685618   -1.57332463    0.97460430
H      2.90534020    0.45061579    1.32933869
H      2.55844006   -0.03951986   -0.35000722
H      0.61875367    1.75661702    0.21617106
O     -2.05293698    1.94051503    0.20114648
H     -1.60915487    0.28727668    1.39920023
H     -2.02978749    2.39707742    1.05870023
O     -1.23712330   -1.75971061   -0.29264192
H     -0.27514406    1.07570691   -1.99689822
H     -0.42777612   -1.75757109    0.25556863
O     -2.51596545   -0.32664338   -1.61183179
H      0.62675106   -0.42719513   -1.70831582
H     -2.76317948   -1.26530616   -1.67849964
H      2.75713006   -1.65354890    1.94245961
