20

O     -1.05705078    1.10897984   -2.88204608
C      0.05716856    1.01483899   -2.36619477
C      0.34346890    1.40066519   -0.92840520
C     -0.30265270    0.37088875    0.05433436
C      0.73224697   -0.66332757    0.51465120
C      0.21355409   -1.61788319    1.58497504
O      1.14859553   -2.67411363    1.77184596
H     -0.75512807   -2.05484012    1.32529390
H      0.10818253   -1.09937163    2.54364158
H      0.90258848    0.58434485   -2.92619953
O     -0.19194038    2.71502879   -0.71358087
H      1.42620091    1.47804875   -0.78827912
H     -0.84846034    2.61860331    0.00730381
O     -0.82074821    1.09317557    1.16695442
H      1.61175856   -0.15263688    0.92964107
H     -1.39601955    0.45828048    1.63066746
O     -1.42896232   -0.30579482   -0.47822600
H      1.08781205   -1.24661052   -0.34364904
H     -1.85158147    0.27653418   -1.14423220
H      1.02096725   -3.30481034    1.04150402
20

O     -2.71376461    1.43721631    0.26767339
C     -1.63644227    1.99064986    0.15379941
C     -1.49630073   -0.88186162   -0.28450165
C     -0.25033781    0.03390785   -0.42427031
C      0.86877951   -0.42138402    0.52942509
C      2.20499461    0.25558738    0.22643334
O      2.99416354    0.31197774    1.41156576
H      2.09496413    1.27486001   -0.15594453
H      2.76284047   -0.32324751   -0.51724463
H     -1.48725278    3.06870020    0.32910475
O     -1.17364892   -2.21379648   -0.70901235
H     -1.86092933   -0.91578894    0.74728535
H     -1.99248031   -2.73552358   -0.62001491
O      0.23539808   -0.10509987   -1.76690209
H      1.02754747   -1.50495726    0.45790218
H     -0.04814608   -0.99829183   -2.04723628
O     -0.44860476    1.44456040   -0.16631812
H      0.57490412   -0.21612662    1.56652202
H     -2.29858434   -0.54429485   -0.94749185
H      2.64290000    1.04291281    1.94922541
