20

O     -1.05705078    1.10897984   -2.88204608
C      0.05716856    1.01483899   -2.36619477
C      0.34346890    1.40066519   -0.92840520
C     -0.30265270    0.37088875    0.05433436
C      0.73224697   -0.66332757    0.51465120
C      0.21355409   -1.61788319    1.58497504
O      1.14859553   -2.67411363    1.77184596
H     -0.75512807   -2.05484012    1.32529390
H      0.10818253   -1.09937163    2.54364158
H      0.90258848    0.58434485   -2.92619953
O     -0.19194038    2.71502879   -0.71358087
H      1.42620091    1.47804875   -0.78827912
H     -0.84846034    2.61860331    0.00730381
O     -0.82074821    1.09317557    1.16695442
H      1.61175856   -0.15263688    0.92964107
H     -1.39601955    0.45828048    1.63066746
O     -1.42896232   -0.30579482   -0.47822600
H      1.08781205   -1.24661052   -0.34364904
H     -1.85158147    0.27653418   -1.14423220
H      1.02096725   -3.30481034    1.04150402