20

O     -2.78069246    1.03001984    1.51027209
C     -1.58415693    1.02883659    1.21844961
C     -0.76169107   -0.11457959    0.49660745
C      0.02697560    0.37658791   -0.76965503
C      1.20459143   -0.52251277   -0.30003545
C      0.62757752   -0.42889710    1.12661749
O      7.14537082    0.25755964   -0.18146835
H      0.67881562   -1.35905102    1.70101921
H      1.04845199    0.37913907    1.73596366
H     -0.98229919    1.92252501    1.45842140
O     -1.56499220   -1.30769059    0.26144657
H      6.63821954    0.38851734    0.63376699
H     -2.20452839   -1.02574644   -0.42072739
O      2.52233527    0.02914955   -0.48245822
H      1.15583347   -1.54227689   -0.70422635
H      2.82697261   -0.31697172   -1.33988581
O     -0.56852353    0.05948015   -2.04789094
H      0.26911569    1.44725887   -0.73457857
H      0.08621458    0.34472913   -2.70933973
H      6.92389210   -0.64607698   -0.45229864
20

O     -2.38438054    0.21906789    2.16084276
C     -1.81082044   -0.05478765    1.11172120
C     -0.53909314    0.66112093    0.59914322
C      0.00751415    0.39902856   -0.82071480
C      1.22193372   -0.34206814   -0.20400042
C      0.80695242    0.17641518    1.17974078
O      7.25425440    0.25755964   -0.18146835
H      0.73103260   -0.60528439    1.94319320
H      1.43797040    0.98084685    1.57257720
H     -0.66326590    1.74323331    0.76134426
O     -2.28609103   -1.05034056    0.31399729
H      6.74710312    0.38851734    0.63376699
H     -1.81762328   -1.08256735   -0.55424260
O      2.51710013    0.07977643   -0.66988245
H      1.13257168   -1.43351314   -0.27776316
H      2.66424526   -0.40124834   -1.50258717
O     -0.82915377   -0.39498626   -1.69608088
H      0.28843437    1.33360138   -1.32431388
H     -0.47732665   -0.22829470   -2.59297451
H      7.03277568   -0.64607698   -0.45229864
