20

O     -2.65368708    0.37610664    0.48779628
C     -1.54924481    0.30755129    1.02858161
C     -0.53885416   -0.78528312    0.69886794
C      0.69903575   -0.14921204    0.12942205
C      0.73442144    0.59130465   -0.98457399
C      7.95162080    0.26656955   -0.20072791
O      7.14594081   -0.87736799    0.01511742
H      8.97467519    0.05905300    0.12240944
H      7.95014050    0.50628429   -1.26663395
H     -1.24662573    1.02696625    1.80828041
O     -1.06248049   -1.71520306   -0.24370712
H     -0.32089860   -1.32405396    1.62677395
H     -2.01059917   -1.49858491   -0.33944034
O      1.90637751    1.14164855   -1.43572518
H     -0.13051331    0.81008337   -1.59877374
H      1.71634201    1.59481556   -2.27862700
O      1.87417887   -0.38235197    0.82807943
H      7.54489825    1.11106697    0.36098559
H      2.58254778    0.00621276    0.27304569
H      7.16658241   -1.06560582    0.96884941
20

O     -2.26254882   -0.15064272   -1.17753654
C     -1.20559162   -0.08548401   -0.58382260
C     -0.80337753   -0.33663036    0.89285904
C      0.53909148    0.38828510    0.55214384
C      0.27231343    0.20144514   -0.97708590
C      7.59275365    0.26656966   -0.20072803
O      6.78707471   -0.87736843    0.01511791
H      8.61580844    0.05905388    0.12240855
H      7.59127239    0.50628440   -1.26663406
H      0.50144424    1.44452178    0.85405820
O     -0.74482865   -1.73504634    1.25827253
H     -1.42375389    0.21638438    1.60582269
H     -1.66654913   -2.04505153    1.19863926
O      0.49604816    1.37007233   -1.79662680
H      0.75220392   -0.68365546   -1.41220468
H      1.31850608    1.18415066   -2.28251351
O      1.76135358   -0.19640009    1.05670742
H      7.18603091    1.11106678    0.36098576
H      2.46568873    0.42805114    0.81128705
H      6.80771717   -1.06560630    0.96884987
