20

O     -2.65368708    0.37610664    0.48779628
C     -1.54924481    0.30755129    1.02858161
C     -0.53885416   -0.78528312    0.69886794
C      0.69903575   -0.14921204    0.12942205
C      0.73442144    0.59130465   -0.98457399
C      7.95162080    0.26656955   -0.20072791
O      7.14594081   -0.87736799    0.01511742
H      8.97467519    0.05905300    0.12240944
H      7.95014050    0.50628429   -1.26663395
H     -1.24662573    1.02696625    1.80828041
O     -1.06248049   -1.71520306   -0.24370712
H     -0.32089860   -1.32405396    1.62677395
H     -2.01059917   -1.49858491   -0.33944034
O      1.90637751    1.14164855   -1.43572518
H     -0.13051331    0.81008337   -1.59877374
H      1.71634201    1.59481556   -2.27862700
O      1.87417887   -0.38235197    0.82807943
H      7.54489825    1.11106697    0.36098559
H      2.58254778    0.00621276    0.27304569
H      7.16658241   -1.06560582    0.96884941