20

O     -2.31901617    0.79673788    0.36436767
C     -1.84150211   -0.21079309    0.88403010
C     -0.35691266   -0.57930548    0.95008346
C      0.58702143    0.06724030   -0.03264093
C      0.27877030    0.81438526   -1.09809329
C      7.60403491   -0.07907265    0.19598924
O      8.49844760    0.75091008   -0.52196417
H      8.11819953   -0.51007660    1.05853867
H      6.76005179    0.52278160    0.54107621
H     -2.49875586   -0.89126517    1.45288643
O     -0.24418410   -1.99830899    0.81910991
H     -0.03499527   -0.33120239    1.96795403
H      0.71479603   -2.17443010    0.76979327
O      1.26274993    1.35904553   -1.88798847
H     -0.72391551    1.05553331   -1.42745728
H      0.82279241    1.91714247   -2.55752806
O      1.93356668   -0.16590773    0.24068062
H      7.23833255   -0.87412523   -0.45843750
H      2.41958491    0.34112821   -0.44519747
H      9.23627360    0.18958279   -0.81520246