20

O     -2.04462013    1.54038352    0.53001908
C     -1.62992088    0.92854431   -0.45193941
C     -0.63598986   -0.22756743   -0.40079288
C      0.75097243    0.30627742   -0.24492617
C      1.57557539    0.01459218    0.76542901
C      4.00809287   -2.05511806   -1.60783407
O      4.24309880   -2.56828592   -0.32098637
H      4.80320610   -1.35675421   -1.88371653
H      3.97837001   -2.87147452   -2.33495639
H     -1.93165221    1.24066202   -1.46710345
O     -0.68302594   -0.95485327   -1.62229228
H     -0.92649026   -0.89642996    0.41618025
H     -1.38536169   -1.62011687   -1.52113665
O      1.23716038   -0.83452432    1.77942978
H      2.57581388    0.42172126    0.84934635
H      1.99467574   -0.89974961    2.38856534
O      2.77183829   -1.38759757   -1.58259665
H      1.10286317    0.98106074   -1.02077897
H      2.10641673   -2.09406391   -1.52731098
H      4.44959851   -1.79107224    0.22512130