20

O     -2.23351562   -0.16861785    1.86715573
C     -1.03231265   -0.12909313    1.62290113
C     -0.40420627   -0.89338639    0.45151656
C      0.59430405   -0.07480394   -0.34787197
C      0.41144272    1.40987288   -0.58268694
C      0.26097541    0.45473419   -1.72553110
O      6.98560537    0.14218672   -0.07618027
H     -0.73870655    0.30407488   -2.11950250
H      1.03245700    0.44675964   -2.48594523
H     -0.48473556    1.90535494   -0.22656942
O     -1.38705074   -1.45059042   -0.42080176
H      0.11390612   -1.74862797    0.90245362
H     -2.21631594   -1.48354430    0.09759505
O     -0.15325418    0.54097523    2.40309967
H      1.29376724    2.04120328   -0.56685230
H      0.77126770    0.48974787    2.07972471
O      1.96369825   -0.47528297   -0.15310431
H      6.57400137   -0.66219620   -0.42619637
H      2.20827904   -1.16877591   -0.79558092
H      6.30628005    0.52000947    0.50237663