20

O     -3.00850402   -0.95039013   -0.07939098
C     -2.08478230   -0.18944345    0.20804215
C     -0.70023617   -0.69072669    0.58127998
C      0.43069889   -0.04561859   -0.19128788
C      1.15990723    1.12940822    0.43019567
C      0.36664927    1.32593822   -0.82421901
O      7.25647011    0.14218672   -0.07618027
H     -0.52607219    1.93221398   -0.75573095
H      0.91177983    1.47991860   -1.75022967
H     -2.25284280    0.89601679    0.29468977
O     -0.63175105   -2.10941315    0.35473256
H     -0.56971488   -0.52948915    1.65642501
H     -1.56122592   -2.42190858    0.33645607
O      2.58736855    1.12246928    0.26529892
H      0.76837565    1.57119028    1.33987174
H      2.84443432    0.36158727   -0.29396218
O      1.30162439   -0.98757515   -0.87126568
H      6.84486612   -0.66219620   -0.42619637
H      0.96429124   -1.89417777   -0.70090553
H      6.57714480    0.52000947    0.50237663
20

O     -1.50469531   -1.60612228   -1.29237308
C     -1.31771133   -0.75288278   -0.44024444
C     -1.05224283   -0.98707713    0.98852507
C     -0.02425023   -0.33052878    0.11772060
C      0.32056635    1.11296726    0.34054491
C      0.45281229    1.87300143   -0.97064166
O      7.24894752    0.14218672   -0.07618027
H     -0.50188513    1.90897587   -1.50435458
H      1.19431280    1.40429652   -1.62720196
H      0.79215617    2.89849261   -0.78866102
O     -0.84300524   -2.37699551    1.34176714
H     -1.61390421   -0.37384187    1.68127462
H     -1.07127182   -2.96287677    0.59358894
O      1.57020724    1.18870985    1.03012922
H     -0.42563932    1.60995848    0.96944081
H      2.09703994    0.42886703    0.70805397
O      1.11440348   -1.14434936   -0.29604712
H      6.83734352   -0.66219620   -0.42619637
H      0.81310713   -1.89059455   -0.85152143
H      6.56962220    0.52000947    0.50237663
