9

C     -6.72018696    0.97153445   -0.00139873
C     -5.48012863    1.83857463   -0.06847590
H     -7.61797014    1.55795445   -0.21582388
H     -6.82326184    0.51908815    0.99037288
H     -6.65442657    0.14906600   -0.72122634
O     -4.32567871    1.05574208    0.19846236
H     -5.52962098    2.65169744    0.66204381
H     -5.37258578    2.27629782   -1.06516822
H     -4.42349337    0.68470910    1.09203139
9

C     -6.44640786    0.80536062    0.22516943
C     -5.18611105    1.92910960   -0.06621446
H     -7.00635066    1.70730380   -0.03146689
H     -6.91461745    0.31794858    1.08313722
H     -6.44673821    0.12189012   -0.62675042
O     -4.46293540    0.97139976    0.17777610
H     -5.60395653    2.56749621    0.72852423
H     -5.46231057    2.20985531   -1.09511558
H     -5.41792526    1.07430012    0.47575773
