20

O     -2.37519416    2.60037913    1.15235847
C     -1.90944775    1.89550569    0.26378586
C     -0.62061333    1.10569902    0.44282549
C     -0.80031398   -0.32100642   -0.10351062
C      0.51400518   -1.12510009   -0.23852028
C      1.72334251   -0.31831925   -0.72455887
O      2.79802686   -1.21240585   -1.03150540
H      2.07380424    0.39756385    0.02462365
H      1.48442585    0.21792870   -1.64842010
H     -2.36748785    1.85564571   -0.74055325
O     -0.20336227    1.08258479    1.80133946
H      0.12995361    1.65422323   -0.13428046
H     -0.58148413    1.88178620    2.22437237
O      0.29336489   -2.17944611   -1.20154465
H      0.76190100   -1.63034954    0.70245488
H      1.18161173   -2.45856929   -1.50086360
O     -1.69943384   -1.09448893    0.72025410
H     -1.28268543   -0.27260511   -1.08686581
H     -2.24532582   -0.50447054    1.26664028
H      3.12491270   -1.57455519   -0.18803153
20

O     -2.52618419    0.87504180    2.02322861
C     -1.59470763    1.01898833    1.23109014
C     -0.72134190   -0.10711822    0.54374768
C     -0.02644652    0.34081686   -0.79444925
C      1.20605457   -0.49106045   -0.33784348
C      0.72192317   -0.26937050    1.11211900
O      4.11238054   -0.46247764    2.20652169
H      0.87041499   -1.12243186    1.78062846
H      1.12644605    0.62824001    1.59474360
H     -1.31981000    2.04331209    0.92662795
O     -1.44080900   -1.37139579    0.43666909
H      3.60522927   -0.33151993    3.02175703
H     -2.16803636   -1.18141950   -0.18472942
O      2.49193757    0.06551463   -0.67008736
H      1.15323162   -1.54533561   -0.64115799
H      2.79620558   -0.44255622   -1.44318743
O     -0.68090005   -0.06401788   -2.01710168
H      0.18250269    1.41852581   -0.83323128
H     -0.07048058    0.20426653   -2.72706662
H      3.89090183   -1.36611425    1.93569140
