9

C     -0.00000000    0.00000000    0.00000000
C      1.36683732    1.42069507   -2.49884195
H     -0.55994273    0.90194315   -0.25663628
H     -0.46820957   -0.48741210    0.85796779
H     -0.00033033   -0.68347056   -0.85191982
O      2.19759430    0.52093851   -2.50071503
H      1.49580249    2.33836416   -1.90302878
H      0.44057916    1.36653938   -3.09285779
H      1.02848264    0.26893951    0.25058831