9

C      1.17473248    0.48772071    0.23685262
C      0.64285364    0.62374616   -1.17381205
H      2.25974491    0.62223671    0.25977728
H      0.86512310    1.61756249   -1.57379500
H      1.08800464   -0.13304757   -1.82662410
O     -0.76510188    0.44202564   -1.15679472
H     -1.07584289    0.53459319   -2.07353392
H      0.71257466    1.22944107    0.89667091
H      0.93198454   -0.49799326    0.64738918