20

O     -2.37519416    2.60037913    1.15235847
C     -1.90944775    1.89550569    0.26378586
C     -0.62061333    1.10569902    0.44282549
C     -0.80031398   -0.32100642   -0.10351062
C      0.51400518   -1.12510009   -0.23852028
C      1.72334251   -0.31831925   -0.72455887
O      2.79802686   -1.21240585   -1.03150540
H      2.07380424    0.39756385    0.02462365
H      1.48442585    0.21792870   -1.64842010
H     -2.36748785    1.85564571   -0.74055325
O     -0.20336227    1.08258479    1.80133946
H      0.12995361    1.65422323   -0.13428046
H     -0.58148413    1.88178620    2.22437237
O      0.29336489   -2.17944611   -1.20154465
H      0.76190100   -1.63034954    0.70245488
H      1.18161173   -2.45856929   -1.50086360
O     -1.69943384   -1.09448893    0.72025410
H     -1.28268543   -0.27260511   -1.08686581
H     -2.24532582   -0.50447054    1.26664028
H      3.12491270   -1.57455519   -0.18803153