20

O     -1.30509654   -3.07479494    1.38613538
C     -0.63043687   -2.05027485    1.33411766
C      0.34047206   -1.73065215    0.19578339
C      0.47494320   -0.22933516    0.09046326
C     -0.32992086    0.56455718   -0.64110309
C     -0.25674901    2.05157927   -0.79849180
O      0.75447646    2.59659975    0.04349810
H     -1.21634570    2.49935255   -0.52281308
H     -0.02397901    2.30722053   -1.83612665
H     -0.68736121   -1.30208261    2.14548386
O     -0.03960778   -2.28754119   -1.05448566
H      1.30971932   -2.16346762    0.46729699
H     -1.00597002   -2.39695495   -1.03168786
O      7.96697241    0.00058797    0.18234835
H     -1.14246101    0.10131880   -1.19766638
H      7.11970758   -0.32211024    0.52435593
O      1.53892709    0.29007904    0.80849422
H      7.75355356    0.32152226   -0.70670428
H      1.55478465    1.25926970    0.62981461
H      0.66460525    3.56512663   -0.01871291
20

O     -2.48720600    0.79723787   -0.83471845
C     -1.31871590    0.60337053   -0.53581446
C     -0.94867416   -0.31198796    0.63844762
C      0.52296110   -0.34403039    0.90674584
C      1.38664935   -0.20331698   -0.10430283
C      1.01066578    0.64581382   -1.27792708
O     -0.31577068    1.19342759   -1.23215362
H      1.13154147    0.10955261   -2.22354773
H      1.70202427    1.49686826   -1.29411894
H     -1.79526424    0.21875422   -3.50464446
O     -1.37249589   -1.65199602    0.38953298
H     -1.47867198    0.05945580    1.52248496
H     -2.32831540   -1.59880987    0.20601624
O      5.62214121   -4.07304885    0.10665056
H      1.74047887   -1.17094205   -0.48580462
H      5.25953517   -3.82580794   -0.75726483
O      0.90215191    0.08072094    2.17270907
H      4.83779736   -4.23998958    0.65061427
H      1.85337724    0.29463586    2.15245102
H     -1.19635803    0.43306508   -3.88277434
