9
0.0
C        0.035074      -0.392611       0.539174
C       -0.035074       0.392611      -0.539174
H        0.987107      -0.778801       0.889579
H       -0.987106       0.778802      -0.889580
H        0.858154       0.664659      -1.092731
O       -0.291163       2.913408       1.100174
H       -0.883795       3.497655       0.603783
H        0.575996       3.058796       0.692918
H       -0.858154      -0.664660       1.092732
9
-0.06755778854130767
C        0.035722      -0.394686       0.537392
C       -0.035570       0.390591      -0.537585
H        0.987228      -0.782809       0.889073
H       -0.986834       0.778145      -0.888999
H        0.857739       0.663466      -1.091842
O       -0.291782       2.918379       1.100807
H       -0.883454       3.502710       0.603378
H        0.575203       3.061205       0.692788
H       -0.857213      -0.667142       1.091862
9
-0.3069192548573483
C        0.037604      -0.410099       0.533325
C       -0.036593       0.383079      -0.533117
H        0.986830      -0.805192       0.886755
H       -0.984660       0.776789      -0.887127
H        0.855799       0.660268      -1.089576
O       -0.295202       2.945457       1.103052
H       -0.881728       3.530582       0.600533
H        0.571792       3.075189       0.691288
H       -0.852804      -0.686213       1.091740
9
-0.6779070569318719
C        0.038351      -0.443285       0.528182
C       -0.035055       0.367297      -0.524427
H        0.985762      -0.847471       0.876966
H       -0.980104       0.770966      -0.875945
H        0.854025       0.652025      -1.083172
O       -0.302439       3.003759       1.105758
H       -0.877544       3.589847       0.591395
H        0.565123       3.104050       0.687072
H       -0.847081      -0.727328       1.091046
9
-1.293432660997496
C        0.045039      -0.527107       0.521477
C       -0.026328       0.322606      -0.499540
H        0.989764      -0.955360       0.848700
H       -0.968709       0.753268      -0.826400
H        0.857657       0.620131      -1.059824
O       -0.329885       3.161067       1.103001
H       -0.868505       3.747376       0.550951
H        0.538144       3.171239       0.673617
H       -0.836139      -0.823362       1.084892
