9
132.26418931083754
C       -0.559835      -0.861483       0.229219
C        0.917883       0.852626       0.156794
H       -1.237937      -0.022237       0.389711
H       -0.682030      -1.328645       1.253502
H       -1.075252      -1.625249      -0.407990
O        0.727463      -0.845513      -0.156456
H        1.700161       1.640467       0.448747
H        0.626894       1.240032      -0.805063
H        1.110697       0.285823       1.026394
9
125.26880466219154
C       -0.625112      -0.853184       0.217434
C        0.971614       0.835226       0.218507
H       -1.227867       0.026835       0.376698
H       -0.777835      -1.351349       1.220764
H       -1.155505      -1.565990      -0.443127
O        0.737367      -0.847228      -0.145808
H        1.784236       1.578375       0.525947
H        0.713099       1.259120      -0.741474
H        1.122347       0.238536       1.107619
9
110.98100438615074
C       -0.597781      -0.965109       0.130534
C        0.883175       0.838773       0.401012
H       -1.175951      -0.066107       0.372197
H       -0.659220      -1.591210       1.042551
H       -1.025058      -1.553952      -0.688584
O        0.793887      -0.758098      -0.215005
H        1.639142       1.610120       0.731651
H        0.542171       1.236982      -0.542109
H        1.050431       0.182325       1.245466
9
100.42526835326862
C       -0.535606      -0.981072       0.190489
C        0.836156       0.866551       0.321797
H       -1.126204      -0.104626       0.437539
H       -0.477455      -1.591646       1.106977
H       -1.000344      -1.609889      -0.569881
O        0.801037      -0.709303      -0.292359
H        1.563725       1.687869       0.539631
H        0.327669       1.167555      -0.584983
H        1.065225       0.263096       1.204062
9
90.09854491738952
C       -0.526682      -0.981000       0.128133
C        0.849501       0.859576       0.325732
H       -1.147485      -0.108005       0.348994
H       -0.496391      -1.600247       1.030778
H       -0.942172      -1.603432      -0.681181
O        0.829274      -0.662685      -0.294444
H        1.578436       1.665565       0.578941
H        0.306190       1.164313      -0.556364
H        0.986082       0.269522       1.237819
9
77.9888329270616
C       -0.559483      -0.949883       0.103710
C        0.916530       0.785060       0.373993
H       -1.137010      -0.044495       0.314405
H       -0.591318      -1.572612       1.017063
H       -0.991279      -1.527189      -0.716848
O        0.831005      -0.673925      -0.260110
H        1.683196       1.550238       0.637907
H        0.363802       1.147398      -0.479044
H        0.925819       0.239783       1.320128
9
66.17797795173828
C       -0.556584      -0.950960       0.075534
C        0.931216       0.752447       0.357639
H       -1.141298      -0.051009       0.294117
H       -0.572550      -1.594938       0.967766
H       -0.993478      -1.492090      -0.765840
O        0.836975      -0.639681      -0.285068
H        1.708907       1.501849       0.619943
H        0.330498       1.173762      -0.439528
H        0.884716       0.259687       1.331849
9
55.74537478086131
C       -0.507132      -0.963676       0.053574
C        0.909510       0.787947       0.234551
H       -1.134258      -0.092645       0.262448
H       -0.484310      -1.600033       0.949013
H       -0.960439      -1.514652      -0.774174
O        0.861244      -0.595461      -0.331773
H        1.665033       1.571202       0.451271
H        0.231479       1.208725      -0.505206
H        0.865389       0.411624       1.267869
9
45.36799901621998
C       -0.536081      -0.946070       0.312980
C        0.975287       0.677670       0.135511
H       -1.102643      -0.019640       0.445745
H       -0.488081      -1.406592       1.317772
H       -1.123639      -1.596097      -0.346149
O        0.789206      -0.722600      -0.231813
H        1.789611       1.420065       0.177580
H        0.250244       1.133627      -0.541430
H        0.938551       0.540749       1.228500
9
38.10503976784821
C       -0.657798      -0.832685       0.621651
C        1.081145       0.464633       0.167809
H       -1.056897       0.177544       0.754689
H       -0.577449      -1.195603       1.666228
H       -1.366272      -1.476085       0.086141
O        0.635080      -0.871062      -0.031834
H        2.021602       1.038824       0.064487
H        0.398985       1.075611      -0.430755
H        1.121254       0.528934       1.276767
9
30.07098355355265
C       -0.677865      -0.778156       0.735069
C        1.091967       0.419011       0.074627
H       -1.054955       0.247633       0.759962
H       -0.559011      -1.057690       1.791645
H       -1.393324      -1.444571       0.244278
O        0.604018      -0.891789       0.045484
H        2.092801       0.865834      -0.062876
H        0.434768       1.085048      -0.497938
H        1.120723       0.660292       1.163122
9
21.82605938325287
C       -0.623724      -0.810405       0.749230
C        1.040324       0.494977      -0.036104
H       -1.082428       0.185550       0.761026
H       -0.410663      -1.097441       1.787850
H       -1.333014      -1.523707       0.316927
O        0.603989      -0.839810      -0.003710
H        2.073209       0.853980      -0.174799
H        0.369045       1.140831      -0.619648
H        1.015869       0.827811       1.029410
9
15.240232129755896
C       -0.643981      -0.692796       0.825934
C        1.043268       0.447442      -0.229658
H       -1.089639       0.306529       0.755928
H       -0.407495      -0.876184       1.883363
H       -1.378101      -1.430012       0.489458
O        0.529503      -0.831262       0.018832
H        2.117406       0.557102      -0.417310
H        0.439740       1.059050      -0.916991
H        1.060358       0.981778       0.748266
9
10.363439802094945
C       -0.662607      -0.568512       0.879200
C        1.057546       0.424674      -0.357371
H       -1.038093       0.461619       0.837160
H       -0.388321      -0.812154       1.916075
H       -1.476160      -1.240349       0.576044
O        0.446948      -0.784779       0.007688
H        2.103762       0.277753      -0.645070
H        0.494661       1.005855      -1.102211
H        1.169489       1.064800       0.536585
9
8.731216803673306
C       -0.719120      -0.508542       0.900615
C        1.125900       0.395807      -0.282120
H       -1.026356       0.545607       0.869020
H       -0.511977      -0.777640       1.947396
H       -1.556171      -1.119333       0.541869
O        0.416053      -0.762399       0.088832
H        2.134576       0.091110      -0.576136
H        0.642416       0.945936      -1.103291
H        1.249494       1.092643       0.564778
9
8.511034891474992
C       -0.740475      -0.507918       0.883126
C        1.153086       0.398314      -0.226661
H       -1.035403       0.550840       0.873268
H       -0.557496      -0.802357       1.928280
H       -1.577393      -1.100221       0.494027
O        0.402838      -0.755877       0.084508
H        2.144083       0.063837      -0.547806
H        0.687892       0.981378      -1.036822
H        1.287441       1.062935       0.641965
