9

C       -0.139763      -0.303237       0.588711
C       -0.497342       0.846760      -0.006183
H        0.812467      -0.444031       1.085075
H       -1.400295       0.950191      -0.595723
H        0.704848       1.350460      -0.534259
O       -0.285654       2.448568       0.831792
H       -0.793929       3.137205       0.350858
H        0.598671       2.295519       0.080562
H       -0.775985      -1.176741       0.465900
9

C       -0.143498      -0.293634       0.590481
C       -0.507102       0.859482       0.004249
H        0.806457      -0.432077       1.091269
H       -1.406982       0.952146      -0.591438
H        0.706850       1.359308      -0.532064
O       -0.285015       2.428440       0.828829
H       -0.794349       3.118539       0.350098
H        0.601732       2.274216       0.065488
H       -0.770088      -1.170969       0.449562
9

C       -0.145807      -0.287700       0.591576
C       -0.513134       0.867344       0.010697
H        0.802743      -0.424689       1.095097
H       -1.411115       0.953354      -0.588789
H        0.708087       1.364775      -0.530707
O       -0.284621       2.416001       0.826998
H       -0.794609       3.107004       0.349627
H        0.603624       2.261050       0.056171
H       -0.766443      -1.167402       0.439464
9

C       -0.149543      -0.278097       0.593346
C       -0.522894       0.880066       0.021129
H        0.796734      -0.412735       1.101290
H       -1.417802       0.955309      -0.584504
H        0.710090       1.373623      -0.528512
O       -0.283982       2.395874       0.824036
H       -0.795029       3.088338       0.348866
H        0.606684       2.239747       0.041096
H       -0.760546      -1.161630       0.423127
9

C       -0.147081      -0.275027       0.594427
C       -0.522209       0.883668       0.024951
H        0.799487      -0.408730       1.102023
H       -1.418679       0.959250      -0.578945
H        0.731473       1.382361      -0.531806
O       -0.285309       2.389908       0.824563
H       -0.797141       3.080715       0.349373
H        0.627938       2.238873       0.030180
H       -0.755509      -1.159497       0.420532
9

C       -0.145560      -0.273129       0.595095
C       -0.521785       0.885893       0.027314
H        0.801188      -0.406255       1.102476
H       -1.419220       0.961686      -0.575509
H        0.744688       1.387761      -0.533843
O       -0.286129       2.386222       0.824889
H       -0.798446       3.076004       0.349685
H        0.641074       2.238333       0.023433
H       -0.752396      -1.158179       0.418929
9

C       -0.143098      -0.270059       0.596177
C       -0.521099       0.889495       0.031137
H        0.803942      -0.402250       1.103208
H       -1.420097       0.965626      -0.569950
H        0.766071       1.396499      -0.537137
O       -0.287456       2.380256       0.825417
H       -0.800558       3.068381       0.350191
H        0.662328       2.237460       0.012516
H       -0.747360      -1.156045       0.416334
