20

O     -2.31451585    1.81693210    0.74585938
C     -1.43850797    1.06836447    1.17311417
C     -0.74303328    0.02921820    0.31434475
C     -0.48321305    0.54406714   -1.09587503
C      1.35172115   -0.72327233   -0.45651441
C      0.65140306   -0.26589348    0.80729393
O      7.40138527    0.25755964   -0.18146835
H      0.69272446   -1.04027992    1.58102118
H      1.13548843    0.63052507    1.21551771
H     -1.18541459    1.05414358    2.24725953
O     -1.49846908   -1.17921584    0.30637245
H      6.89423400    0.38851734    0.63376699
H     -2.35880230   -0.97889767   -0.10990124
O      2.70772242   -0.33702105   -0.40958908
H      1.28272851   -1.80877421   -0.58739019
H      3.07942117   -0.64958359   -1.25176534
O      0.72411922   -0.08210349   -1.56224284
H     -0.31447728    1.62617807   -1.12389386
H     -1.28889500    0.29561294   -1.79361110
H      7.17990656   -0.64607698   -0.45229864