20

O     -2.05427465   -1.92978831    0.81417571
C     -1.81781013   -0.84240600    0.31249380
C     -0.59401776   -0.06435115    0.54521072
C      0.69639905   -0.77528941    0.86256899
C      0.53023752   -0.09857175   -0.47101933
C      1.29646867    1.13862239   -0.79529233
O      1.09030379    1.46934281   -2.16324763
H      2.36867391    0.97754061   -0.64904237
H      0.99053976    1.99434970   -0.18431468
H     -0.76925156    0.86809924    1.07126323
O     -2.68263285   -0.22710645   -0.51240484
H     -2.68035154   -0.15875480    3.19952881
H     -3.44096720   -0.84581256   -0.56247012
O     -3.38732823    0.28686802    2.70905428
H      0.44701182   -0.75847289   -1.32795641
H     -4.01498771   -0.42301234    2.50638594
O      1.54941604   -0.11513058    1.81063569
H      0.70198902   -1.86246980    0.85512847
H      1.54575727   -0.58128223    2.66606469
H      0.14215731    1.65272637   -2.27179359