20

O     -0.62267571   -3.07558627    1.53713761
C     -0.82218634   -2.45247176    0.49496694
C      0.26132711   -1.71713610   -0.28495050
C      0.00353158   -0.23239122   -0.18491610
C      0.87574247    0.64898657    0.33660473
C      0.72178869    2.13518420    0.43966568
O     -0.62141403    2.51628862    0.15492424
H      1.38446012    2.63305680   -0.27478754
H      0.97192859    2.46555082    1.45221967
H     -1.84083266   -2.37548141    0.07572378
O      0.22655622   -2.09111626   -1.65771315
H      1.23667494   -1.99777313    0.12572608
H     -0.42313009   -1.49654565   -2.07820286
O      7.75279869    0.00058797    0.18234835
H      1.82191695    0.27062430    0.72064513
H      6.90553387   -0.32211024    0.52435593
O     -1.19571963    0.17945071   -0.74626984
H      7.53937984    0.32152226   -0.70670428
H     -1.27490486    1.14447106   -0.55199828
H     -0.70306335    3.44488872    0.44122444
20

O     -2.81694484   -1.04325422    1.49247061
C     -2.06928926   -0.17091283    1.04793876
C     -1.20547023   -0.31507411   -0.22546708
C      0.06328927   -1.02541047    0.18051132
C      1.37075396   -0.70485275    0.14079329
C      2.06119866    0.54372410   -0.29260222
O      1.27094915    1.67365853    0.04324691
H      2.24539170    0.52979241   -1.37093328
H      3.01953874    0.63254272    0.22918889
H     -1.97034339    0.79724187    1.56754908
O     -1.78604904   -1.15563222   -1.20085256
H     -0.15329516   -2.03470334    0.54216460
H     -2.72926504   -0.92610204   -1.20438655
O      7.67308143   -0.02676673    0.10665056
H      2.06203409   -1.48635444    0.45964319
H      7.31047539    0.22047419   -0.75726483
O     -1.03241353    0.94632182   -0.81493320
H      6.88873758   -0.19370745    0.65061427
H     -0.17373540    1.28793341   -0.49770766
H      1.84365031    2.45108156   -0.09662411
