20

O     -2.19601580   -2.00237812    0.01199759
C     -1.07965130   -2.51315477   -0.05343728
C      0.25393319   -1.76177460   -0.06358284
C      0.12150241   -0.33971403    0.45473750
C      0.33039659    0.77138495   -0.27803352
C      0.25501401    2.18220867    0.19953718
O      0.80053939    3.01640149   -0.81063999
H      0.83764540    2.32433662    1.11456544
H     -0.78530308    2.47706545    0.36439728
H     -0.98129742   -3.60603081   -0.17426257
O      0.77676465   -1.82469122   -1.38759930
H      0.94221026   -2.31058876    0.58873437
H      0.14789447   -1.34718434   -1.95749593
O     -1.45250061    3.23912716    3.23522654
H      0.61752151    0.67077573   -1.32222459
H     -2.10729932    3.41887449    3.92652282
O     -0.21218672   -0.27545580    1.79806386
H     -0.60919750    3.21594260    3.71194799
H     -0.55972142    0.60742613    2.00554909
H      0.73075384    3.93137342   -0.49030629
20

O     -2.76970768    1.11999993    0.70883122
C     -2.52734114    0.10167462    1.35326499
C     -1.20123601   -0.66236884    1.36218927
C     -0.08976833    0.09817720    0.66542634
C      0.49732266   -0.25123013   -0.49493817
C      1.68187172    0.40975718   -1.10534651
O      1.26373763    1.27634355   -2.12609305
H      0.66971686   -2.00331209   -3.68951304
H      2.27036840    0.97386142   -0.37525081
H     -3.31532896   -0.35594423    1.97625421
O     -1.42198047   -1.95183189    0.79846611
H     -0.92222052   -0.81089965    2.41157977
H     -1.69806138   -1.81294393   -0.12409385
O      2.48917671   -0.57680216   -1.70488705
H      0.15192345   -1.13060234   -1.02976769
H      3.40117465   -0.37315241   -1.43925719
O      0.32932963    1.22549377    1.35514740
H      1.30032197   -2.36160485   -3.83635816
H      0.40604632    1.94996256    0.70311217
H      1.45469330    0.77050536   -2.93463716
