20

O     -2.19601580   -2.00237812    0.01199759
C     -1.07965130   -2.51315477   -0.05343728
C      0.25393319   -1.76177460   -0.06358284
C      0.12150241   -0.33971403    0.45473750
C      0.33039659    0.77138495   -0.27803352
C      0.25501401    2.18220867    0.19953718
O      0.80053939    3.01640149   -0.81063999
H      0.83764540    2.32433662    1.11456544
H     -0.78530308    2.47706545    0.36439728
H     -0.98129742   -3.60603081   -0.17426257
O      0.77676465   -1.82469122   -1.38759930
H      0.94221026   -2.31058876    0.58873437
H      0.14789447   -1.34718434   -1.95749593
O     -1.45250061    3.23912716    3.23522654
H      0.61752151    0.67077573   -1.32222459
H     -2.10729932    3.41887449    3.92652282
O     -0.21218672   -0.27545580    1.79806386
H     -0.60919750    3.21594260    3.71194799
H     -0.55972142    0.60742613    2.00554909
H      0.73075384    3.93137342   -0.49030629