20

O     -1.39867054   -3.12523984   -0.13145295
C     -0.60930570   -2.51358619    0.58995843
C      0.52617799   -1.65303553    0.04169275
C      0.22428256   -0.18937037    0.28368933
C      0.44316410    0.78895788   -0.61620328
C      0.16712666    2.25295444   -0.48168594
O     -0.54522247    2.52108811    0.72267607
H     -0.43824168    2.59282846   -1.32752802
H      1.10649843    2.81369517   -0.46452873
H     -0.67709718   -2.57050478    1.69010412
O      0.69233484   -1.91559739   -1.35215083
H      1.45011456   -1.94044130    0.55280351
H     -0.19262363   -2.19094076   -1.66718040
O      1.23021280   -5.77584629   -0.49216554
H      0.88754153    0.51343562   -1.57212632
H      0.97717009   -5.93255739   -1.41432172
O     -0.30528691    0.09759166    1.53230736
H      1.02644845   -4.83932384   -0.34945327
H     -0.51505167    1.06200065    1.53023140
H     -0.81574090    3.45616415    0.66939350
20

O     -1.03693276   -0.75571786    0.31305400
C     -0.10736570    0.02331953    0.40773910
C     -2.69021165    2.64098068   -1.18900304
C     -3.71872445    2.38019565   -0.11785547
C     -5.05046993    2.42315783   -0.30694067
C     -6.12870793    2.15097648    0.69057745
O     -5.60427185    1.43892678    1.80686490
H     -6.92930564    1.55424222    0.24215576
H     -6.55767631    3.09204532    1.04687519
H      0.22593093    0.54018103    1.31945717
O     -3.26776691    2.60625981   -2.48958843
H     -2.23387080    3.62411506   -1.03567249
H     -2.52813959    2.68610924   -3.11444730
O      0.65120726    0.35218380   -0.64896575
H     -5.41519697    2.69415661   -1.29678153
H      0.26716026   -0.15996650   -1.39128452
O     -3.17339034    2.08523509    1.12021300
H     -1.90802840    1.87588313   -1.14591054
H     -3.92360846    1.95402147    1.74140355
H     -5.56388045    0.50543549    1.52450327
