20

O     -2.76289396   -0.55784461    2.40323500
C     -2.39768571   -0.12353330    1.31440424
C     -1.00954405    0.45624395    1.08499253
C     -0.32192784   -0.28751451   -0.08758178
C      1.09045786    0.27311274   -0.32025177
C      1.65634795   -0.02250363   -1.70296112
O      2.99668538    0.45113225   -1.79074265
H      1.07416734    0.47767280   -2.48394663
H      1.66386719   -1.09601993   -1.91168262
H     -3.08956776   -0.08035321    0.45501268
O     -0.22353845    0.35561114    2.27269754
H     -1.14480246    1.51637804    0.84137416
H     -0.81664092    0.58144275    3.01672007
O     -0.21869614   -1.68213756    0.16365740
H      1.78246906   -0.12110326    0.43611008
H     -0.33282923   -1.81300274    1.12570789
O     -1.12934839   -0.15585793   -1.24321363
H      1.08925432    1.36296111   -0.19131915
H     -0.89418075   -0.94115459   -1.77340529
H      2.98840655    1.40647048   -1.60880695
20

O     -3.00186717    1.46262059    1.97097259
C     -1.85442278    1.49738387    1.53338289
C     -1.02766553    0.24378982    1.29168035
C     -0.44746126    0.26707843   -0.13455621
C      0.39754528   -1.00640519   -0.38454565
C      2.60496395   -0.68653604   -1.19254152
O      1.22494474   -0.78841837   -1.54626047
H      2.75397907    0.08388838   -0.42847568
H      3.17110606   -0.40502074   -2.08368343
H     -1.34318019    2.45813020    1.34524570
O     -1.79162055   -0.93739025    1.53947566
H     -0.21076019    0.26972700    2.02250701
H     -2.72921501   -0.66475043    1.45053391
O     -1.49509682    0.35943053   -1.09393783
H     -0.25334850   -1.85858338   -0.61005435
H     -1.17714642   -0.08468089   -1.90043362
O      0.36367117    1.42674846   -0.29730992
H      1.01353779   -1.26005593    0.48611496
H      0.82991741    1.27302755   -1.14114034
H      2.97211895   -1.64998360   -0.82697407
