20

O     -3.00186717    1.46262059    1.97097259
C     -1.85442278    1.49738387    1.53338289
C     -1.02766553    0.24378982    1.29168035
C     -0.44746126    0.26707843   -0.13455621
C      0.39754528   -1.00640519   -0.38454565
C      2.60496395   -0.68653604   -1.19254152
O      1.22494474   -0.78841837   -1.54626047
H      2.75397907    0.08388838   -0.42847568
H      3.17110606   -0.40502074   -2.08368343
H     -1.34318019    2.45813020    1.34524570
O     -1.79162055   -0.93739025    1.53947566
H     -0.21076019    0.26972700    2.02250701
H     -2.72921501   -0.66475043    1.45053391
O     -1.49509682    0.35943053   -1.09393783
H     -0.25334850   -1.85858338   -0.61005435
H     -1.17714642   -0.08468089   -1.90043362
O      0.36367117    1.42674846   -0.29730992
H      1.01353779   -1.26005593    0.48611496
H      0.82991741    1.27302755   -1.14114034
H      2.97211895   -1.64998360   -0.82697407