20

O     -2.05125430   -0.39528381    1.34408582
C     -1.06194838   -1.07206658    1.61329689
C      0.30894663   -0.96671863    0.96882352
C      0.49760919   -0.02465497   -0.20141094
C     -0.17195325    1.33059383   -0.27127910
C     -0.57270524    0.24180896   -1.23098043
O      7.24737840   -0.25911128   -0.22059204
H     -1.55186412   -0.20503507   -1.11111445
H     -0.26790864    0.33585837   -2.26729190
H     -1.11815383   -1.81339509    2.42998728
O      0.66143895   -2.29952807    0.57394302
H      1.00273743   -0.67415452    1.76489714
H      0.52961421   -2.34704104   -0.39031063
O      0.64462583    2.37721316   -0.83287570
H     -0.87680625    1.60814640    0.50464267
H      0.08614966    3.10802239   -1.15499609
O      1.83829410   -0.05764824   -0.75054085
H      7.04759270    0.66787728   -0.41993818
H      2.10317802    0.85388293   -0.98887626
H      6.82900902   -0.40876600    0.64053021