9

C     -0.83669454   -0.32881920   -0.09776085
C      0.40278308    0.53907225   -0.16472646
H     -1.73447922    0.25604180   -0.31637420
H     -0.94179443   -0.77755796    0.89549106
H     -0.76841114   -1.15396894   -0.81426331
O      1.55791054   -0.24330997    0.10072203
H      0.35313741    1.35144401    0.56662537
H      0.50952783    0.97783935   -1.16103675
H      1.45802049   -0.62074132    0.99132310
9

C     -6.77939545    0.58407084   -0.15957228
C     -4.93534138    1.95346999    0.33754604
H     -7.14840221    1.28963237   -0.91026506
H     -7.24248318    0.78924453    0.81046597
H     -7.05075506   -0.42882042   -0.46893916
O     -5.36362943    0.65814919   -0.06046889
H     -5.34032152    2.20512034    1.32252620
H     -5.24326902    2.70183320   -0.39910432
H     -3.84375573    1.95196408    0.39862887
