9

C     -6.71975888    0.97168826   -0.00102693
C     -5.48024615    1.83952756   -0.06800782
H     -7.61754949    1.55665429   -0.21933658
H     -6.82470484    0.52268373    0.99212037
H     -6.65165244    0.14673004   -0.71776760
O     -4.32516279    1.05712239    0.19756528
H     -5.52988971    2.65196130    0.66327486
H     -5.37344250    2.27820804   -1.06434974
H     -4.42494618    0.68008849    1.08834552
9

C     -6.77938004    0.58414918   -0.15984835
C     -4.93535520    1.95338967    0.33782163
H     -7.14798340    1.28874322   -0.91164808
H     -7.24278636    0.79074600    0.80973731
H     -7.05081003   -0.42911155   -0.46793350
O     -5.36362967    0.65814949   -0.06046882
H     -5.33926227    2.20418154    1.32346180
H     -5.24444575    2.70216199   -0.39792769
H     -3.84370026    1.95225458    0.39762306
