20

O      2.74996724   -0.54657077   -0.87871701
C      2.07139926   -0.15490315    0.07028250
C      1.07174961    0.98400815   -0.05596159
C     -0.22421898    0.68494774    0.74017639
C     -1.17550361   -0.42230335    0.22599127
C     -0.79230621   -1.16965960   -1.04530776
O     -1.78824472   -2.15454051   -1.32335100
H      0.16380073   -1.68882955   -0.94988629
H     -0.75830888   -0.50351002   -1.90969944
H      2.22118112   -0.57022253    1.08076175
O      0.81516048    1.30123960   -1.42100282
H      1.56284188    1.85938909    0.38742243
H      1.66162101    1.18297069   -1.89618301
O      0.12121944    0.37650232    2.08886073
H     -2.18215807   -0.01435892    0.06196148
H      0.35065956    1.24227012    2.47565676
O     -0.94481720    1.91008960    0.88773249
H     -1.31977658   -1.17030182    1.01839821
H     -1.87264936    1.69187952    1.07679333
H     -1.73161673   -2.83809662   -0.63392841