20

O     -2.29733205    1.88932399   -1.11194793
C     -1.17844595    2.30350926   -0.80725568
C     -0.06374678    1.41586887   -0.27708858
C     -0.61517404    0.05767271    0.18232368
C      0.47721265   -0.98973200    0.49248957
C      1.42903837   -1.24393548   -0.68039951
O      2.24007294   -2.38513371   -0.40450783
H      2.09209449   -0.39398130   -0.85969763
H      0.86778220   -1.45756562   -1.59562673
H     -0.90520593    3.35837794   -0.96987715
O      0.58338334    2.07615519    0.80626566
H      0.65401983    1.31487214   -1.09699107
H      0.05505951    1.86877161    1.60578626
O     -0.11608133   -2.27100441    0.81547156
H      1.04855641   -0.70626379    1.38399860
H     -0.99950830   -2.31369474    0.41078072
O     -1.37054612    0.26990203    1.39579386
H     -1.30825927   -0.36543264   -0.55523875
H     -2.26875439    0.54929127    1.12917609
H      1.67583440   -2.97700132    0.13654487
20

O     -2.77807425    1.67310817    0.82903022
C     -2.74277147    0.76245077    0.00184312
C     -1.60068529   -0.24172869   -0.13930462
C     -0.27190207    0.44532577   -0.15813665
C      0.90943601   -0.17280458   -0.01420664
C      2.23128820    0.54269328   -0.01192989
O      3.12101877   -0.20796902    0.81454150
H      2.15949266    1.56355729    0.37612290
H      2.65072377    0.56927742   -1.02172253
H     -3.59298263    0.60376520   -0.68396187
O     -1.77676174   -0.92121410   -1.37751491
H     -1.68407776   -0.95779112    0.68649132
H     -2.06167449   -1.82460746   -1.15582260
O      0.97294510   -1.54378119    0.17026195
H      0.35719505    0.05036399   -2.95994227
H      1.92976816   -1.75167404    0.24221566
O     -0.30594689    0.75463140   -3.01660957
H     -0.28446500    1.52546461   -0.28792407
H     -0.38901387    0.92195368   -3.96743244
H      2.81872203   -0.06407229    1.73001710
