20

O     -1.30763332   -2.44856790    0.16860384
C     -0.08676684   -2.49097903    0.35417191
C      0.91011421   -1.52466299   -0.27511167
C      0.58050060   -0.09676824    0.10259386
C     -0.41578124    0.63151658   -0.43766285
C     -0.75083923    2.05575443   -0.13576609
O     -0.43433636    2.34635669    1.22088038
H     -1.81724987    2.23639133   -0.30393022
H     -0.17249672    2.72479869   -0.77973692
H      0.35969458   -3.30418248    0.94816422
O      0.93087505   -1.69435890   -1.68868177
H      1.90605612   -1.78920751    0.09684131
H      0.01769204   -1.55990955   -1.99549600
O      7.59815203   -0.25993712    0.25981464
H     -1.07035365    0.16440266   -1.16946941
H      7.34510932   -0.41664822   -0.66234154
O      1.42934838    0.45506530    1.04988251
H      7.39438768    0.67658533    0.40252691
H      1.03064281    1.31356805    1.32006573
H     -1.10946657    2.98078284    1.52465117
20

O     -2.83840599    2.24289621   -0.87044879
C     -2.27538449    1.58010825   -0.00823363
C      0.62766087   -0.99779741    0.22560007
C     -0.51064483   -0.04540814    0.56438785
C     -1.20239552    0.63232984   -0.36311869
C      1.66415932   -0.42546493   -0.75515200
O      2.25328897    0.75909176   -0.22544282
H      1.21799952   -0.21250234   -1.73310987
H      2.46016011   -1.15872011   -0.92727474
H     -2.53373774    1.66388199    1.06009318
O      0.07423390   -2.20012201   -0.30704571
H      1.15557421   -1.26616229    1.14847139
H     -0.69285955   -2.43314783    0.24561291
O      8.09879657   -0.02676673    0.10665056
H     -1.00745977    0.53552601   -1.42430108
H      7.73619053    0.22047419   -0.75726483
O     -0.80877975    0.11081056    1.91022703
H      7.31445272   -0.19370745    0.65061427
H     -0.02532040   -0.13160559    2.43851160
H      2.44191113    1.34628606   -0.97877672
