20

O     -2.13294033    0.21858674   -0.13458410
C     -1.78193176   -0.10062093    1.21712649
C     -0.96451148   -0.58981727    0.05193192
C      0.35650391    0.01941976   -0.43740662
C      1.41931454    0.53783701    0.51460234
C      0.68525838    1.49059456   -0.37869549
O      7.28099116    0.14218672   -0.07618027
H     -0.03346347    2.16103164    0.07559940
H      1.21718457    1.92523512   -1.21641553
H     -1.38883504    0.69620818    1.83422212
O     -1.15345839   -1.96821366   -0.31453138
H     -2.40105267   -0.81408428    1.74531858
H     -2.04853542   -2.06640636   -0.68522501
O      2.78262018    0.26414558    0.14044123
H      1.19186820    0.56921863    1.57373121
H      2.79909270   -0.11918890   -0.75869155
O      0.91004017   -0.65950702   -1.59818310
H      6.86938716   -0.66219620   -0.42619637
H      0.54284589   -1.56443879   -1.62924051
H      6.60166584    0.52000947    0.50237663