20

O     -3.05414223    0.16726976    0.74896858
C     -1.90230278    0.04135330    1.15736736
C     -0.84671867   -0.86878068    0.54462027
C      0.10950324   -0.13117243   -0.37713669
C      1.38342294    0.45325195    0.20099358
C      0.32349268    1.36597825   -0.33466120
O      7.23666600   -0.02987845    0.38086036
H     -0.22405906    1.97827895    0.36971809
H      0.51323174    1.87429655   -1.27501161
H     -1.55058241    0.63929010    2.01582084
O     -1.46351473   -1.94364312   -0.16098142
H     -0.29426661   -1.32493891    1.37300831
H     -1.72815900   -1.56736529   -1.02255255
O      2.54944961    0.31686454   -0.63080185
H      1.52331312    0.44632691    1.27735646
H      3.25912572   -0.16512231   -0.16868580
O      0.24346182   -0.70575728   -1.69981260
H      7.80248084    0.07006107   -0.39941309
H      1.15874459   -0.57613029   -2.01820977
H      6.33800699   -0.04018263    0.01855273