20

O     -1.16767316    2.24210402    1.43439693
C     -1.55250150    1.08764712    1.24382010
C     -0.76103754   -0.07644395    0.53833053
C     -0.00486794    0.34687633   -0.77083701
C      1.19088502   -0.52027742   -0.28585903
C      0.63801016   -0.38877438    1.14486134
O      7.14526782    0.25755964   -0.18146835
H      0.69360562   -1.30496237    1.74068749
H      1.07785090    0.42996926    1.72601528
H     -2.56026883    0.79670064    1.58626417
O     -1.60201575   -1.25540088    0.35432039
H      6.63811654    0.38851734    0.63376699
H     -1.82805990   -1.22637558   -0.59892476
O      2.50400719    0.02397688   -0.51360596
H      1.14240247   -1.55383111   -0.65377841
H      2.73719710   -0.23732543   -1.42116471
O     -0.64345296   -0.07984556   -2.00012027
H      0.22429150    1.41914616   -0.81707224
H     -0.08837237    0.29681627   -2.70733383
H      6.92378910   -0.64607698   -0.45229864
20

O     -1.85026838    0.72136564    1.97496510
C     -1.46761820    1.05308601    0.85472951
C     -1.29558714    0.06445954   -0.28595888
C      0.10933359    0.23156268   -0.89500576
C      1.13536649   -0.63739196   -0.23187943
C      1.80365169   -0.25545879    1.06204498
O      6.99687921    0.25755964   -0.18146835
H      2.16451664   -1.05394564    1.69986487
H      1.47086988    0.62632014    1.59374401
H     -1.28532728    2.11293269    0.60670076
O     -1.53849116   -1.27475001    0.14565946
H      6.48972794    0.38851734    0.63376699
H     -2.14563626   -1.21328144    0.90992322
O      2.45357606   -0.07296281   -0.20580775
H      1.02923886   -1.68948310   -0.46663706
H     -2.06124952    0.30885557   -1.03066834
O      0.06995518   -0.09031512   -2.29039218
H      0.41226075    1.28481677   -0.84585068
H      0.99540880   -0.11581017   -2.59543184
H      6.77540050   -0.64607698   -0.45229864
