20

O     -3.31782055    0.41904276    0.13829191
C     -2.16050472    0.65825567    0.48658374
C     -1.18617246   -0.45254405    0.84597649
C      0.14589473   -0.33557482    0.05527598
C      1.25886760   -1.05854907    0.82019007
C      1.61801156    1.29524411   -0.87768712
O      1.45404874    2.52726101   -1.55379319
H      1.84495004    0.52054948   -1.61725773
H      2.46279874    1.39543149   -0.19033143
H     -1.81001619    1.69280860    0.64196596
O     -1.78862999   -1.73164024    0.57639245
H     -1.01379681   -0.36884511    1.92498517
H     -2.74281781   -1.54859193    0.42695359
O     -0.01426075   -0.98638981   -1.20799294
H      0.97181187   -2.08730277    1.06262024
H     -0.71840061   -1.65285045   -1.06413949
O      0.44367556    1.04407149   -0.13061682
H      1.51036928   -0.52835713    1.74480426
H      2.17332066   -1.12552725    0.22047908
H      0.86867110    2.32350803   -2.30270024