20

O     -2.64631557   -0.16172719   -0.60136409
C     -2.13088359   -0.31291742    0.50417568
C     -0.67265557   -0.04136827    0.89266033
C      0.23263947    0.46614574   -0.20409678
C      1.47546671    0.02863414   -0.44110831
C     -1.87886402   -3.76149498   -1.27708627
O     -2.19586314   -3.90773631   -2.64910213
H     -0.93167326   -4.26367189   -1.06549894
H     -1.78447419   -2.69795730   -1.04557125
H     -2.74680713   -0.69100995    1.33895214
O     -0.17074988   -1.26957283    1.43549554
H     -0.69323777    0.69461647    1.70377028
H     -0.15478657   -1.90449768    0.69570173
O      2.24210277    0.56841510   -1.44295282
H      1.97841347   -0.73773873    0.13505626
H      3.14062046    0.19664708   -1.36620571
O     -0.26290493    1.50511834   -0.97728017
H     -2.67707313   -4.19495687   -0.66955505
H      0.40909814    1.65925518   -1.67280409
H     -2.27317926   -4.86100610   -2.82449647
20

O     -2.39195163    1.17969996   -0.24082977
C     -2.16268199    0.21501515    0.48146472
C     -0.81286039   -0.43158516    0.74602925
C      0.36056051    0.20243324    0.06502108
C      1.26117666   -0.47172992   -0.65750529
C     -1.41886111   -5.30433819   -0.58904582
O     -1.62619485   -4.52963040   -1.74290322
H     -0.81298333   -6.18152257   -0.83294746
H     -0.91159818   -1.48057566    0.44145278
H     -3.00091841   -0.27925412    1.00373894
O     -0.74838068   -4.50198834    0.34969636
H     -0.65190626   -0.41673472    1.82937316
H      0.15637251   -4.41540517    0.00493267
O      2.34560321    0.16080004   -1.21005387
H      1.23207786   -1.53865755   -0.83542719
H      2.93794104   -0.52076975   -1.57727180
O      0.52958544    1.55860171    0.27178515
H     -2.37878495   -5.63271337   -0.18070240
H      1.26497213    1.82275677   -0.31777716
H     -2.31866607   -3.89337359   -1.49673702
