20

O     -1.63474184    1.19176189    2.14968601
C     -1.72915750    0.40071673    1.21380249
C     -0.65225378   -0.59343694    0.76980896
C      0.53407199    0.10191847    0.14108653
C      1.00213613   -0.09163569   -1.09781518
C      8.19214912    0.26656968   -0.20072790
O      7.38647046   -0.87736872    0.01511740
H      9.21520385    0.05905422    0.12240936
H      8.19066855    0.50628449   -1.26663397
H     -2.65021892    0.38950610    0.60651153
O     -1.24014806   -1.53953288   -0.12821935
H     -0.33036364   -1.15129864    1.65533860
H     -1.52111498   -1.05411972   -0.92192436
O      2.10920529    0.58532394   -1.54718094
H      0.58752835   -0.78034367   -1.82151773
H      2.33954287    0.23959804   -2.42966248
O      1.22122468    0.97627830    0.97182941
H      7.78542572    1.11106662    0.36098567
H      1.96428937    1.32526406    0.43825652
H      7.40711187   -1.06560629    0.96884944