20

O     -2.75220824   -0.61847850    1.43605345
C     -1.72479454    0.03079155    1.23045863
C     -0.46268331   -0.60149399    0.64839848
C      0.24369724    0.32285761   -0.30566637
C      1.52964194    0.17916463   -0.64405047
C     -4.90110071   -1.11899077   -0.22990343
O     -6.28388085   -1.16099663   -0.53066428
H     -4.32656331   -1.41682244   -1.11042840
H     -4.62950012   -0.09890450    0.05166037
H     -1.64143318    1.08232137    1.55355113
O     -0.76212867   -1.82481019   -0.01521534
H      0.19108620   -0.82862077    1.49807291
H     -1.62503540   -2.11414439    0.34376046
O      2.14413765    1.06069933   -1.49578937
H      2.16366104   -0.62497852   -0.29276241
H      3.03948524    0.72001113   -1.68070718
O     -0.47897430    1.38552458   -0.82740646
H     -4.68777612   -1.79356185    0.60290368
H      0.13554833    1.83115617   -1.44869746
H     -6.49507821   -2.07767450   -0.77675698
20

O      1.14326614    0.37934162   -2.84844358
C      0.35143953   -0.03990851   -2.00281757
C      0.49459515    0.30142897   -0.51672675
C     -0.86445265    0.52034222    0.12151315
C     -1.11412984    0.43881680    1.43396649
C      1.34910295   -0.81993018    0.11302842
O      0.65610378   -2.06284817    0.20144808
H      1.68446207   -0.53263362    1.11645836
H      2.25604037   -0.98427148   -0.48199319
H     -0.45764777   -0.74071472   -2.27416262
O      1.23887713    1.52765378   -0.40500047
H      4.66395672   -0.51216251   -1.88057881
H      1.73065940    1.61501652   -1.24714799
O     -2.38131708    0.62182109    1.92887954
H     -0.36812348    0.23756353    2.19079063
H     -2.33897032    0.52050120    2.89799503
O     -1.92598677    0.79999556   -0.73441738
H      4.24744575   -0.05981195   -2.29227965
H     -2.70387831    0.90638755   -0.14648358
H      1.24995968   -2.68856216    0.65311343
