20

O     -1.10168409    2.08751114    1.77914250
C     -1.56557780    1.08040532    1.24272217
C     -0.77032444   -0.07776542    0.53016434
C      0.01174958    0.37472608   -0.75322347
C      1.18508509   -0.52858825   -0.28033444
C      0.61700917   -0.42496093    1.14725647
O      7.14766348    0.25755964   -0.18146835
H      0.65330370   -1.35609431    1.72076504
H      1.06435500    0.37210389    1.75234864
H     -2.65998589    0.94121671    1.22656628
O     -1.62295899   -1.23919709    0.29309372
H      6.64051220    0.38851734    0.63376699
H     -1.82275745   -1.18511384   -0.66458395
O      2.50946750   -0.00176200   -0.48230990
H      1.12127074   -1.55080941   -0.67652589
H      2.76317507   -0.27802183   -1.37991910
O     -0.61893528   -0.00015886   -2.00315731
H      0.25707567    1.44445932   -0.75992398
H     -0.02026760    0.34204947   -2.69208113
H      6.92618476   -0.64607698   -0.45229864
20

O     -2.46379275    1.30828920    1.29406140
C     -1.95486588    0.55576505    0.46140513
C     -0.47164603    0.03184130    0.41356705
C      0.40373687    0.55661018   -0.76150541
C      0.74078043   -0.94039795   -0.96896233
C      0.19686583    0.09547786    1.78931523
O      7.16266357    0.25755964   -0.18146835
H      1.20130681   -0.33901642    1.78277431
H      0.29031544    1.13459858    2.12322194
H     -2.58085830    0.18763891   -0.36878564
O     -0.37206735   -1.32864064   -0.12755335
H      6.65551230    0.38851734    0.63376699
H     -0.39379310   -0.44878798    2.53382137
O      2.00621669   -1.39844716   -0.47651145
H      0.58092848   -1.29321490   -1.99370468
H      2.65619007   -1.08210747   -1.12607395
O     -0.25390660    1.23081031   -1.86653948
H      1.25889247    1.15756078   -0.43363466
H     -0.84430309    0.57202035   -2.27489547
H      6.94118486   -0.64607698   -0.45229864
