20

O     -1.10168409    2.08751114    1.77914250
C     -1.56557780    1.08040532    1.24272217
C     -0.77032444   -0.07776542    0.53016434
C      0.01174958    0.37472608   -0.75322347
C      1.18508509   -0.52858825   -0.28033444
C      0.61700917   -0.42496093    1.14725647
O      7.14766348    0.25755964   -0.18146835
H      0.65330370   -1.35609431    1.72076504
H      1.06435500    0.37210389    1.75234864
H     -2.65998589    0.94121671    1.22656628
O     -1.62295899   -1.23919709    0.29309372
H      6.64051220    0.38851734    0.63376699
H     -1.82275745   -1.18511384   -0.66458395
O      2.50946750   -0.00176200   -0.48230990
H      1.12127074   -1.55080941   -0.67652589
H      2.76317507   -0.27802183   -1.37991910
O     -0.61893528   -0.00015886   -2.00315731
H      0.25707567    1.44445932   -0.75992398
H     -0.02026760    0.34204947   -2.69208113
H      6.92618476   -0.64607698   -0.45229864