20

O     -1.85829564   -2.31510480    1.48247326
C     -0.74116530   -1.79973245    1.56259393
C      0.19660506   -1.67421250    0.36844787
C      0.46673867   -0.20933512    0.13017501
C     -0.41253102    0.63450953   -0.44256539
C     -0.21249262    2.08473300   -0.73881526
O      1.17511875    2.35591412   -0.91116659
H     -0.58825117    2.69802995    0.08551367
H     -0.74644834    2.35608590   -1.65494602
H     -0.34544759   -1.44139111    2.52753748
O     -0.36964546   -2.25334670   -0.80421843
H      1.11741077   -2.21825344    0.60170064
H     -1.10392196   -2.81853908   -0.49537308
O      7.71789804   -0.11879177   -0.30365612
H     -1.38415320    0.23900421   -0.73579219
H      6.93600065   -0.55816246    0.06315565
O      1.72108960    0.22266342    0.52646125
H      7.81609629    0.67695423    0.24050047
H      1.85366533    1.10526722    0.10770465
H      1.23172411    3.03370784   -1.60973078
20

O     -2.52951782   -1.30814097    0.75244984
C     -1.84223568   -0.31558630    0.51359514
C     -0.47722871   -0.10174850    1.14133696
C      0.36255818    0.94379790   -1.87732578
C      0.39796679   -0.25126036   -1.27684125
C      0.67501802   -0.47828939    0.18257996
O      1.81712826    0.33232835    0.51202249
H      0.10978060    1.09663011   -2.91959020
H      0.96486153   -1.52445440    0.34205456
H     -2.18415413    0.46890337   -0.18330868
O     -0.38035027   -0.88583461    2.33977305
H     -0.40854401    0.94780117    1.44846978
H     -1.01985931   -1.62065629    2.24081772
O      7.23067188   -0.02676673    0.10665056
H      0.17355886   -1.13573562   -1.86994001
H      6.86806584    0.22047419   -0.75726483
O      0.62450746    2.12552487   -1.24261000
H      6.44632803   -0.19370745    0.65061427
H      1.11475322    1.91819641   -0.41691669
H      2.60175703   -0.21147574    0.31343313
