20

O     -1.21930987    0.88132251    0.41524143
C     -0.17661604    1.24435389    1.22153988
C     -0.04155553    0.71866919    2.43687409
C     -0.85956465    0.40188909   -0.88265661
C      0.03507671   -0.85195133   -0.82110238
C      1.53002970   -0.56333947   -0.88750408
O      2.25332241   -1.76531945   -0.63184106
H      1.86285171    0.18865975   -0.16888440
H      1.80903210   -0.21936920   -1.88864709
H      0.50524525    1.96375133    0.78589221
O     -0.92838727   -0.19124810    2.95018543
H      0.76850884    0.93026073    3.12177535
H     -1.67811985   -0.22934173    2.32399831
O     -2.07901531    0.07443170   -1.53230836
H     -0.19727122   -1.52296974   -1.65882616
H     -2.21984885   -0.87742569   -1.41055809
O     -0.27943770    1.39726738   -1.68895570
H     -0.19789603   -1.43753737    0.07804319
H     -1.06852689    1.80798835   -2.08352969
H      2.18148251   -1.95009184    0.32126370