20

O     -2.74448763    1.14547095    1.02182113
C     -2.46610633    0.87751522   -0.14587114
C     -1.08293951    0.48085027   -0.63292788
C     -0.01503307    0.45478968    0.49478814
C      1.26544884   -0.26805949    0.03742581
C      1.13321087   -1.78475274   -0.03391543
O      2.36427033   -2.35368336   -0.47016351
H      0.35024200   -2.10220767   -0.72758578
H      0.90967668   -2.20631925    0.95084966
H     -3.25386880    0.85726382   -0.91870288
O     -0.69938594    1.40604161   -1.65660457
H     -1.20264372   -0.50687891   -1.08760772
H     -0.37912347    2.19698840   -1.16918652
O      0.34164771    1.80307680    0.79744677
H      2.08838296   -0.03746347    0.72793420
H      1.02168836    1.73438252    1.49217535
O     -0.47100100   -0.12909914    1.69696160
H      1.60452541    0.12830683   -0.92865175
H     -1.30624388    0.33567116    1.92226819
H      2.54174022   -2.03189324   -1.37045367