20

O     -0.69031246   -0.85073278    2.44096960
C     -0.57423757   -0.71772087    1.24394259
C     -1.50072913   -0.90001476   -0.00038084
C     -0.44952919   -0.03590155   -0.76870460
C      0.60743992   -0.29898534    0.34580206
C      1.38465778    0.91018657    0.81168951
O      1.97322714    1.53491172   -0.32733486
H      2.17566524    0.62737874    1.51508195
H      0.74080678    1.64627574    1.30319459
H      1.10899162   -3.49468937   -1.69697448
O     -2.82473025   -0.33349327    0.09628635
H     -1.54743797   -1.94519637   -0.32712402
H     -3.19476594   -0.43293682   -0.79906864
O      1.73175882   -3.00944877   -2.25881394
H      1.26470907   -1.14879377    0.11904443
H      2.00531837   -3.66091819   -2.92192310
O     -0.09741313   -0.50257657   -2.08865093
H     -0.76127446    1.01612856   -0.82838629
H      0.57675445    0.13405466   -2.39464593
H      2.91716970    1.29741611   -0.34171496