20

O     -1.87450368   -1.66394475    2.37342027
C     -1.37844605   -1.28970672    1.31229052
C     -0.27919336   -0.24567536    1.24103190
C     -0.21729476    0.42430322   -0.10960298
C      0.75809910   -0.00151362   -1.18527739
C      0.96337712    1.29624378   -0.45698168
O      3.98185578    0.70656762   -2.49948752
H      1.78488076    1.35239519    0.24834116
H      0.76896668    2.22552488   -0.97823798
H     -1.62817609   -1.79680987    0.36435780
O      0.96384184   -0.87512017    1.56099779
H     -0.47985565    0.51468945    2.00390632
H      0.86786881   -1.19729124    2.47713603
O      0.26335174    0.12419882   -2.53317462
H      1.44025526   -0.81709055   -0.96755743
H      1.00265545    0.13537229   -3.16808839
O     -1.48833011    0.90450379   -0.60179514
H      4.72659426    1.21806956   -2.84976079
H     -1.46749703    0.90992085   -1.58076618
H      3.82730413    1.08871133   -1.62253771
20

O     -1.23424534   -2.39949277    2.09271579
C     -1.12349283   -1.54844115    1.20952185
C      0.23000335   -0.97647486    0.82044702
C      0.12348409    0.37104402    0.06495949
C     -0.55458942    0.18042371   -1.33563220
C      1.51550074    1.01000419   -0.05271352
O      0.08757954    0.86827925   -2.39137013
H      1.97134891    1.12818642    0.93772069
H      1.44337581    2.02401793   -0.46398555
H     -1.99314025   -1.24891998    0.60466280
O      0.95277025   -1.94053664    0.06053518
H      0.77497687   -0.81891945    1.75994403
H      0.94074453   -2.77464568    0.56987687
O     -1.89661962    0.65149790   -1.29065014
H     -0.59059466   -0.87331818   -1.62524554
H     -1.90606954    1.31424371   -0.56950079
O     -0.68226024    1.30471045    0.83432806
H     -0.03754913    1.81306145   -2.21750462
H     -0.21287861    1.49539722    1.66895621
H      2.19165557    0.41988249   -0.67706551
