20

O     -1.87450368   -1.66394475    2.37342027
C     -1.37844605   -1.28970672    1.31229052
C     -0.27919336   -0.24567536    1.24103190
C     -0.21729476    0.42430322   -0.10960298
C      0.75809910   -0.00151362   -1.18527739
C      0.96337712    1.29624378   -0.45698168
O      3.98185578    0.70656762   -2.49948752
H      1.78488076    1.35239519    0.24834116
H      0.76896668    2.22552488   -0.97823798
H     -1.62817609   -1.79680987    0.36435780
O      0.96384184   -0.87512017    1.56099779
H     -0.47985565    0.51468945    2.00390632
H      0.86786881   -1.19729124    2.47713603
O      0.26335174    0.12419882   -2.53317462
H      1.44025526   -0.81709055   -0.96755743
H      1.00265545    0.13537229   -3.16808839
O     -1.48833011    0.90450379   -0.60179514
H      4.72659426    1.21806956   -2.84976079
H     -1.46749703    0.90992085   -1.58076618
H      3.82730413    1.08871133   -1.62253771