20

O     -3.03698639    0.46871146    1.22582751
C     -1.82546745    0.35408005    1.38711169
C     -0.93081201   -0.62110784    0.62837346
C      0.04694041    0.11000786   -0.25796724
C      1.50296455   -0.29906408   -0.26689420
C      1.09937360    1.02673195    0.31028911
O      7.14804545   -0.02987845    0.38086036
H      1.17073647    1.15123436    1.38344826
H      1.34522054    1.92321522   -0.24901027
H     -1.30303945    0.97049951    2.13933247
O     -1.68593670   -1.52145948   -0.17439454
H     -0.40848826   -1.22255066    1.38005370
H     -2.15291099   -0.94789014   -0.81476014
O      2.14954880   -0.23523924   -1.55078502
H      1.83776451   -1.05770328    0.43366979
H      2.45170498   -1.11855440   -1.83107957
O     -0.48831102    0.51571012   -1.53841896
H      7.71386030    0.07006107   -0.39941309
H      0.22769841    0.50337859   -2.20479607
H      6.24938645   -0.04018263    0.01855273
20

O     -2.89031831   -0.73871391    0.14093519
C     -1.86387660   -0.19707177    0.55415226
C     -0.45918189   -0.76318427    0.30389645
C      0.44514441    0.19372616   -0.47871062
C      1.55199368    0.97046447    0.20844317
C      0.36995515    1.70072437   -0.34946800
O      6.97292251    0.14218672   -0.07618027
H     -0.30245777    2.16258034    0.36158071
H      0.51744592    2.28842945   -1.25000506
H     -1.91167682    0.71615598    1.16911209
O     -0.56174891   -1.97178578   -0.44850715
H      1.64771449    0.92978592    1.28709203
H     -1.48478834   -2.26982759   -0.31495320
O      0.12949095   -1.11809767    1.53786924
H      2.49902094    1.06645759   -0.31168521
H      0.99615665   -1.48440032    1.29015192
O      0.80389027   -0.27690823   -1.80089149
H      6.56131851   -0.66219620   -0.42619637
H      0.51323621   -1.20833477   -1.89901233
H      6.29359719    0.52000947    0.50237663
