20

O      0.03417922   -1.69167016   -2.65427510
C      1.05705555   -1.38482690   -2.04179923
C      1.04779409   -1.04298268   -0.56725589
C      0.56494672    0.40636568   -0.40664748
C     -0.33553486    0.59986635    0.82105090
C     -1.71871944   -0.03724899    0.65203676
O     -2.46821232    0.20817222    1.84353268
H     -1.66156147   -1.11666738    0.49313713
H     -2.26286761    0.42726000   -0.17701132
H      2.01874260   -1.25910907   -2.56544714
O      2.34440677   -1.20489412    0.00196411
H      0.38322436   -1.76588527   -0.08587780
H      2.75452957   -0.31222207   -0.04246776
O     -0.50986872    2.02070932    1.00878226
H      0.15609672    0.23713095    1.73091194
H     -1.23321505    2.09520293    1.66628426
O      1.72885392    1.25519657   -0.26740437
H      0.03126338    0.76404483   -1.29550349
H      1.37572172    2.08200531    0.13133681
H     -3.30683518   -0.28044753    1.75465274
20

O      0.25042190    1.89914325   -1.11048559
C     -0.92301579    1.10286953   -0.89260687
C     -1.34123240    0.94733406    0.54713719
C     -0.78303454   -0.23940435   -0.20706025
C      0.49966257   -0.88947326    0.24752594
C      1.74740254   -0.01219778    0.35895255
O      2.80737569   -0.79249710    0.93349169
H      1.59161446    0.86967238    0.98663865
H      2.10173551    0.29942989   -0.62746410
H     -1.71223207    1.18044360   -1.63545776
O     -2.75966865    0.90316325    0.79459939
H     -0.72628846    1.43314902    1.29530322
H     -3.11693894    0.06097707    0.44701323
O      0.77755248   -1.98451060   -0.65091358
H      0.31344046   -1.36000707    1.22063790
H      1.71777062   -2.20688170   -0.49442962
O     -1.78450060   -1.21847634   -0.60720302
H      0.00600772    2.78506121   -1.43498191
H     -1.31393159   -1.94768178   -1.06435762
H      2.64785908   -0.83011329    1.89366054
