20

O     -3.00690564   -0.64854245   -0.00508944
C     -1.95516415   -0.17572015    0.42556236
C     -0.60505397   -0.89333839    0.44188168
C      0.39560409    0.00102482   -0.24448481
C      1.19236663    0.86910214    0.38742779
C     -2.60739624    0.71962475   -2.77151509
O     -2.26454296   -0.63892454   -2.97424123
H     -3.02359631    1.13282131   -3.69356026
H     -3.35445933    0.78282493   -1.97683055
H     -1.95435157    0.82503455    0.89115426
O     -0.61540757   -2.15818742   -0.19763641
H     -0.33509302   -1.05470278    1.49072674
H     -0.67250494   -1.95892271   -1.15247499
O      2.08182287    1.64702059   -0.30738570
H      1.19794993    1.03317653    1.45735836
H      2.56175866    2.20750767    0.33102354
O      0.48971096   -0.14079205   -1.62254469
H     -1.71723344    1.28100602   -2.47726611
H      1.22526771    0.44733966   -1.89551867
H     -1.60069146   -0.66322286   -3.68429409