20

O     -0.63339173   -2.64043751    2.54556728
C      0.09614990   -1.80412165    2.01114842
C     -0.23023580   -1.18345290    0.66126181
C      0.20213202    0.29248176    0.63453913
C     -0.30122116    1.07530821   -0.59742239
C      0.36857760    0.74223819   -1.94009127
O      1.01402043   -0.52036951   -1.95065314
H      1.11717871    1.49863212   -2.20010025
H     -0.38748155    0.75540226   -2.73335909
H      1.07212299   -1.53617196    2.44923897
O     -1.62460344   -1.32839191    0.38316042
H      0.31652007   -1.76860799   -0.08148569
H     -1.92192955   -2.10009508    0.90800758
O     -0.12582696    2.48733266   -0.32912601
H     -1.38479591    0.94581949   -0.69553140
H      0.83017085    2.65134004   -0.23334750
O     -0.29670215    0.95640927    1.81888332
H      1.29352448    0.36902600    0.70565479
H     -0.63116394    1.82890376    1.52416312
H      1.22695514   -0.72124526   -2.88050812