9
0.9218828664743342
C        0.031498      -0.412714       0.718692
C       -0.144409       0.474521      -0.261156
H        1.025352      -0.717054       1.037883
H       -1.118632       0.700512      -0.681301
H        0.702842       0.961480      -0.739198
O       -0.660122       2.639102       1.470838
H        0.141725       3.181315       1.465955
H       -0.349711       1.725829       1.603878
H       -0.800079      -0.977037       1.134909
9
0.8575816788943484
C        0.037923      -0.419227       0.713711
C       -0.135647       0.484569      -0.250069
H        1.029662      -0.719037       1.041855
H       -1.109179       0.715315      -0.670423
H        0.710569       0.986313      -0.710772
O       -0.669274       2.616412       1.519743
H        0.133872       3.153527       1.545248
H       -0.362159       1.701872       1.638912
H       -0.792165      -1.002725       1.107056
