9
0.4732760957995197
C       -0.685742      -0.346764      -0.056229
C        0.556398       0.527794      -0.139992
H       -1.607734       0.206895      -0.285730
H       -0.811876      -0.730470       0.965244
H       -0.597106      -1.196727      -0.740417
O        1.750729      -0.217624       0.128317
H        0.470010       1.367313       0.568063
H        0.671510       0.945064      -1.146045
H        1.543424      -0.759837       0.907447
9
0.3534418189228745
C       -0.737738      -0.371354      -0.021437
C        0.502723       0.506412      -0.133207
H       -1.660041       0.179938      -0.226443
H       -0.818012      -0.761928       1.004562
H       -0.677901      -1.224346      -0.708225
O        1.693447      -0.244424       0.097838
H        0.436479       1.349273       0.574716
H        0.598860       0.936898      -1.135357
H        1.528539      -0.777090       0.887099
