9
0.18033073395781685
C       -0.652474      -0.352202      -0.062328
C        0.598630       0.515608      -0.138660
H       -1.558263       0.211764      -0.308200
H       -0.780845      -0.748588       0.955933
H       -0.572372      -1.203156      -0.746944
O        1.786385      -0.227440       0.109980
H        0.513497       1.363701       0.562159
H        0.714796       0.935765      -1.142757
H        1.626128      -0.748333       0.912322
9
0.15209540365322027
C       -0.684673      -0.348149      -0.056170
C        0.580610       0.497034      -0.144403
H       -1.578060       0.238227      -0.300727
H       -0.821659      -0.733448       0.962532
H       -0.624792      -1.202834      -0.738142
O        1.762289      -0.260737       0.106289
H        0.512703       1.352678       0.547983
H        0.701470       0.901753      -1.155207
H        1.605940      -0.776104       0.912032
