9
0.0
C        0.035074      -0.392611       0.539174
C       -0.035074       0.392611      -0.539174
H        0.987107      -0.778801       0.889579
H       -0.987106       0.778802      -0.889580
H        0.858154       0.664659      -1.092731
O       -0.748983       2.398809       1.624158
H       -0.090003       2.894565       1.115304
H       -0.235769       1.992477       2.338628
H       -0.858154      -0.664660       1.092732
9
-0.0940892756334506
C        0.035693      -0.393482       0.537014
C       -0.035203       0.390520      -0.538942
H        0.987580      -0.781730       0.888431
H       -0.986447       0.778531      -0.889654
H        0.858299       0.662246      -1.094092
O       -0.750271       2.403428       1.626980
H       -0.090872       2.896746       1.117343
H       -0.236218       1.994909       2.339414
H       -0.857316      -0.665316       1.091596
9
-0.4645415040286025
C        0.038782      -0.401823       0.530593
C       -0.034279       0.383027      -0.542091
H        0.988251      -0.798282       0.884254
H       -0.982377       0.779492      -0.892408
H        0.857933       0.653139      -1.103661
O       -0.757225       2.426936       1.641259
H       -0.094547       2.909222       1.126057
H       -0.238945       2.006338       2.343675
H       -0.852350      -0.672198       1.090412
9
-1.0888027666223934
C        0.043667      -0.421296       0.519404
C       -0.028252       0.368622      -0.549183
H        0.988772      -0.832241       0.868807
H       -0.972629       0.780520      -0.892565
H        0.858731       0.633508      -1.121870
O       -0.771883       2.478509       1.672313
H       -0.103914       2.934912       1.140200
H       -0.246182       2.029842       2.351720
H       -0.843065      -0.686523       1.089264
9
-2.07819310479681
C        0.058331      -0.473720       0.496791
C       -0.010583       0.335403      -0.560118
H        0.995326      -0.923634       0.818145
H       -0.949869       0.782567      -0.874208
H        0.866842       0.582565      -1.154669
O       -0.804351       2.618857       1.750789
H       -0.139429       2.997431       1.155458
H       -0.268945       2.085608       2.359875
H       -0.822078      -0.719226       1.086027
9
-2.3673932296806015
C        0.070842      -0.508468       0.491519
C        0.001646       0.317094      -0.556395
H        1.000338      -0.996343       0.782071
H       -0.930128       0.800687      -0.837807
H        0.869766       0.539695      -1.173224
O       -0.813845       2.719183       1.797210
H       -0.183161       3.016640       1.137510
H       -0.288748       2.127741       2.337794
H       -0.801466      -0.730379       1.099413
9
-2.6735390929097775
C        0.082321      -0.526663       0.495144
C        0.012393       0.307940      -0.539362
H        1.002207      -1.046387       0.757193
H       -0.910880       0.821044      -0.795608
H        0.872223       0.508379      -1.174965
O       -0.821815       2.789650       1.808122
H       -0.225592       3.020264       1.088906
H       -0.302703       2.141276       2.317719
H       -0.782910      -0.729652       1.120939
9
-2.834374642407056
C        0.090027      -0.531510       0.505280
C        0.018819       0.309413      -0.525316
H        1.003922      -1.067302       0.750543
H       -0.899956       0.838716      -0.765485
H        0.873017       0.497916      -1.173003
O       -0.823468       2.812547       1.803479
H       -0.249473       3.003913       1.047168
H       -0.317979       2.145548       2.292231
H       -0.769665      -0.723388       1.143192
