9
88.59878654088243
C        0.660895      -0.240014       1.932442
C       -0.461544       0.990373      -0.093974
H        1.658361      -0.631727       1.749320
H       -1.440423       0.602085      -0.359562
H        0.255162       1.216960      -0.889830
O       -0.722164       2.058097       0.460775
H       -0.336230       2.745533      -0.106140
H        0.697027       0.687429       2.348280
H       -0.094176      -0.855802       2.412360
9
76.12726966751507
C        0.649137      -0.241197       1.907521
C       -0.459586       0.983336      -0.074228
H        1.647946      -0.656314       1.700105
H       -1.441198       0.599500      -0.328699
H        0.247970       1.191219      -0.872669
O       -0.713683       2.097696       0.491454
H       -0.327751       2.764038      -0.099039
H        0.712683       0.697988       2.332106
H       -0.098770      -0.863316       2.397111
9
45.86309449242253
C        0.495762      -0.252993       1.789995
C       -0.401476       0.975521      -0.004525
H        1.446936      -0.735621       1.485646
H       -1.393200       0.615523      -0.352078
H        0.380731       1.064275      -0.786987
O       -0.593269       2.238143       0.623257
H       -0.092118       2.882050       0.072651
H        0.633250       0.672594       2.368477
H       -0.260104      -0.886522       2.257214
9
20.95856782751798
C        0.472415      -0.200528       1.549985
C       -0.327942       0.937411       0.149812
H        1.402796      -0.718343       1.245067
H       -1.370017       0.594569      -0.228688
H        0.396879       0.917310      -0.671274
O       -0.600716       2.287017       0.835068
H       -0.133740       2.972197       0.319235
H        0.674856       0.642935       2.285865
H       -0.297542      -0.859640       1.968602
9
-10.267625588836381
C        0.406284      -0.089835       1.443796
C       -0.227191       0.884497       0.288789
H        1.281683      -0.641898       1.039973
H       -1.223570       0.559507      -0.068756
H        0.489290       0.823948      -0.558732
O       -0.415850       2.279117       0.851896
H        0.139655       2.885477       0.310830
H        0.840499       0.573270       2.226693
H       -0.272310      -0.771955       1.955532
9
-17.12911250065372
C        0.401904      -0.056980       1.405396
C       -0.135303       0.885863       0.311884
H        1.224955      -0.698524       1.064432
H       -1.094541       0.523121      -0.101185
H        0.578402       0.944227      -0.520461
O       -0.381608       2.200003       0.862358
H        0.147931       2.846656       0.402160
H        0.803704       0.548384       2.255456
H       -0.376119      -0.703947       1.816829
9
-18.1039146065159
C        0.398048      -0.047726       1.425915
C       -0.109606       0.891085       0.320654
H        1.173522      -0.730641       1.062514
H       -1.025449       0.481454      -0.130587
H        0.632193       0.964206      -0.488372
O       -0.415518       2.186081       0.852943
H        0.111149       2.841275       0.378702
H        0.823121       0.557644       2.228917
H       -0.408523      -0.655426       1.846619
9
-18.588736020072247
C        0.399799      -0.026841       1.445976
C       -0.099770       0.874572       0.310453
H        1.136427      -0.755462       1.089169
H       -0.989594       0.429000      -0.157605
H        0.665762       0.955399      -0.474923
O       -0.456398       2.167411       0.811003
H        0.067508       2.828834       0.341187
H        0.870625       0.595789       2.212285
H       -0.417159      -0.580595       1.919682
9
-19.17150257238245
C        0.426928       0.017757       1.480928
C       -0.096553       0.838334       0.298820
H        1.128817      -0.755891       1.149522
H       -0.949048       0.324437      -0.167680
H        0.682395       0.928487      -0.472261
O       -0.537846       2.126662       0.736569
H       -0.027438       2.799460       0.268525
H        0.943964       0.682760       2.179852
H       -0.386431      -0.474572       2.023298
9
-19.80711170878203
C        0.428120       0.027320       1.486178
C       -0.081927       0.832402       0.292116
H        1.073126      -0.796960       1.160447
H       -0.894540       0.288025      -0.210471
H        0.722421       0.958002      -0.447365
O       -0.590497       2.098918       0.719626
H       -0.082350       2.793054       0.280054
H        1.003279       0.681486       2.150910
H       -0.399826      -0.394195       2.065761
9
-20.322616623758222
C        0.392480      -0.012304       1.454890
C       -0.056957       0.867300       0.293133
H        0.944414      -0.888327       1.093989
H       -0.846043       0.359254      -0.280614
H        0.782046       1.034132      -0.398623
O       -0.579183       2.106824       0.779242
H       -0.062733       2.824566       0.389395
H        1.041742       0.560348       2.127842
H       -0.467340      -0.361146       2.036669
9
-20.411608109701774
C        0.387084      -0.019254       1.448682
C       -0.052844       0.873705       0.293781
H        0.916592      -0.905869       1.079923
H       -0.838545       0.373039      -0.290758
H        0.790944       1.047019      -0.390418
O       -0.576304       2.107890       0.791951
H       -0.061264       2.830540       0.409741
H        1.053722       0.535872       2.119047
H       -0.476723      -0.351788       2.033714
