9
181.188868222991
C       -0.305010      -0.331081       0.281945
C        0.792312       0.428985      -0.388515
H       -1.330640       0.136386       0.262123
H       -0.179022      -0.488508       1.332023
H       -0.447535      -1.287725      -0.248261
O        1.519513      -0.447084      -0.135765
H        1.025867       1.382048       0.136613
H        0.669491       0.656266      -1.463049
H        0.627156      -0.681353       0.425443
9
115.06024156269268
C       -0.328848      -0.360682       0.299928
C        0.747906       0.495977      -0.393759
H       -1.367686       0.071616       0.291972
H       -0.180528      -0.595493       1.367922
H       -0.438663      -1.268869      -0.283076
O        1.586096      -0.449061      -0.174010
H        1.020098       1.445985       0.143161
H        0.621940       0.769202      -1.455068
H        0.711817      -0.740744       0.405481
9
41.23828677413985
C       -0.354438      -0.366937       0.357974
C        0.646140       0.544129      -0.457268
H       -1.390656       0.019295       0.436400
H       -0.008028      -0.494488       1.431880
H       -0.478772      -1.307974      -0.177493
O        1.699856      -0.465098      -0.323374
H        0.860322       1.486082       0.083501
H        0.330290       0.774676      -1.483748
H        1.067418      -0.821746       0.334691
9
16.063394004755537
C       -0.391444      -0.455908       0.315916
C        0.492678       0.578949      -0.387499
H       -1.479037      -0.283446       0.335701
H       -0.018052      -0.521789       1.350209
H       -0.279962      -1.423137      -0.213000
O        1.850209      -0.076926      -0.254461
H        0.479875       1.537097       0.155312
H        0.274460       0.707247      -1.458367
H        1.443388      -0.694092       0.358826
9
5.5800095820304705
C       -0.399011      -0.538990       0.228466
C        0.442996       0.581464      -0.353645
H       -1.481487      -0.504593       0.142860
H       -0.221795      -0.631685       1.299764
H       -0.056314      -1.475370      -0.229241
O        1.854565       0.239843      -0.101544
H        0.204380       1.550447       0.111260
H        0.305974       0.645215      -1.436972
H        1.722801      -0.498313       0.541733
9
2.996774487037328
C       -0.415054      -0.562864       0.206435
C        0.449150       0.546011      -0.366613
H       -1.499990      -0.547964       0.064341
H       -0.282001      -0.582798       1.297164
H       -0.057127      -1.535146      -0.164039
O        1.813323       0.302547      -0.044121
H        0.144991       1.532899       0.004773
H        0.372787       0.576813      -1.466935
H        1.846028      -0.361476       0.671694
9
1.4520423816866241
C       -0.417693      -0.573033       0.241406
C        0.454344       0.502067      -0.386589
H       -1.493104      -0.433187       0.087197
H       -0.262199      -0.569270       1.333083
H       -0.127361      -1.558336      -0.133317
O        1.826793       0.256094      -0.123018
H        0.165661       1.498061      -0.015636
H        0.338043       0.519978      -1.480126
H        1.887624      -0.274349       0.679702
9
0.7218212730804225
C       -0.435046      -0.609722       0.187231
C        0.486419       0.494381      -0.343382
H       -1.467871      -0.428394      -0.130544
H       -0.423273      -0.637659       1.284898
H       -0.119876      -1.586843      -0.194403
O        1.853491       0.276482      -0.027953
H        0.149847       1.476546       0.029783
H        0.440141       0.532609      -1.439958
H        1.888272      -0.149368       0.837038
9
0.38747771065391134
C       -0.429950      -0.634585       0.138431
C        0.483514       0.504836      -0.313995
H       -1.455241      -0.472945      -0.212616
H       -0.457286      -0.708143       1.233685
H       -0.079504      -1.591598      -0.265356
O        1.849755       0.285877       0.013875
H        0.124747       1.461984       0.101321
H        0.458117       0.599429      -1.406796
H        1.877952      -0.076820       0.914162
9
0.15189766223193146
C       -0.417976      -0.659714       0.136492
C        0.460228       0.508083      -0.306386
H       -1.455091      -0.512719      -0.186140
H       -0.413507      -0.771382       1.228994
H       -0.055715      -1.598294      -0.297701
O        1.840614       0.301961      -0.029244
H        0.103619       1.446173       0.151062
H        0.398884       0.632600      -1.392063
H        1.911049       0.021327       0.897701
9
0.028060412674676627
C       -0.400023      -0.688499       0.135495
C        0.436404       0.510398      -0.300990
H       -1.450013      -0.558779      -0.152945
H       -0.365242      -0.821037       1.225158
H       -0.024630      -1.606955      -0.327691
O        1.827761       0.333336      -0.059886
H        0.066309       1.428019       0.185759
H        0.348263       0.659798      -1.381512
H        1.933275       0.111755       0.879328
