20

O     -2.44806419    1.70308606    0.80188687
C     -1.57488361    0.97068418    1.26940590
C     -0.75983259   -0.13790599    0.50395951
C      0.02119865    0.39041605   -0.75173928
C      1.21191266   -0.50439680   -0.30946668
C      0.62799738   -0.48692503    1.11505487
O      6.84090011    0.33989949   -0.19843595
H      0.67883281   -1.44543489    1.64051994
H      1.04903613    0.28843879    1.76565418
H     -1.30306901    1.07347342    2.33367180
O     -1.58741100   -1.30352282    0.22350868
H      7.68301919   -0.07724574    0.03775530
H     -2.06779511   -1.04419558   -0.58924322
O      2.52301823    0.07185000   -0.45988018
H      1.18300834   -1.50642632   -0.75755747
H      2.79361566   -0.14847384   -1.36875551
O     -0.57114106    0.07438772   -2.03413820
H      0.24249116    1.46457473   -0.69624287
H     -0.01891444    0.54037033   -2.68663833
H      6.17237496   -0.26265375    0.16068065