20

O      0.21130010   -2.56575205    0.14694253
C      0.95910602   -1.75658018   -0.39228812
C      0.52507691   -0.44892206   -1.02841683
C     -0.72364062    0.18750185   -0.36859292
C     -0.75864813    0.21839807    1.16392305
C      0.54430989    0.63950380    1.83680018
O      1.18693601    1.71376876    1.16874030
H      1.25052194   -0.19557595    1.86701895
H      0.35552456    0.93735267    2.87305783
H      2.03636846   -1.97685401   -0.48490395
O      0.24750808   -0.69245904   -2.42035443
H      1.36948380    0.24715676   -0.97626895
H      1.10133423   -0.72322623   -2.88675309
O     -0.81930622    1.54527976   -0.80936103
H     -1.08231897   -0.74689658    1.57031396
H     -1.77921443    1.64786134   -0.95086089
O     -1.92189940   -0.40674240   -0.85192464
H     -1.53492093    0.93472754    1.46870487
H     -1.66519435   -0.83886260   -1.69243291
H      0.49767305    2.28032056    0.76665607
20

O      0.81954793    2.41560874   -0.64288530
C      0.97935723    2.04115114    0.51574170
C     -1.35053839    0.05918067   -0.03316533
C     -0.15226617   -0.77153491   -0.61214752
C      1.29134935   -0.36625028   -0.21713795
C      1.48709821    0.67157981    0.88702882
O     -1.33957956    0.10827156    1.38256254
H      1.01916243    0.35300320    1.82144029
H      2.55736582    0.78663977    1.09651115
H      0.79317078    2.72539422    1.36012581
O     -2.57604134   -0.59327348   -0.36694275
H     -1.37621222    1.06990276   -0.44846359
H     -3.22519705    0.12423438   -0.46371631
O     -0.35627312   -2.12477722   -0.18715313
H      1.82524722   -0.01148673   -1.10878894
H     -1.31083963   -2.26361069   -0.36658044
O     -0.24632375   -0.82182041   -2.03173879
H      1.83116122   -1.26945389    0.10059661
H      0.53327804   -1.31283325   -2.33765769
H     -1.20346702   -0.81992539    1.65237081
