20

O      0.21130010   -2.56575205    0.14694253
C      0.95910602   -1.75658018   -0.39228812
C      0.52507691   -0.44892206   -1.02841683
C     -0.72364062    0.18750185   -0.36859292
C     -0.75864813    0.21839807    1.16392305
C      0.54430989    0.63950380    1.83680018
O      1.18693601    1.71376876    1.16874030
H      1.25052194   -0.19557595    1.86701895
H      0.35552456    0.93735267    2.87305783
H      2.03636846   -1.97685401   -0.48490395
O      0.24750808   -0.69245904   -2.42035443
H      1.36948380    0.24715676   -0.97626895
H      1.10133423   -0.72322623   -2.88675309
O     -0.81930622    1.54527976   -0.80936103
H     -1.08231897   -0.74689658    1.57031396
H     -1.77921443    1.64786134   -0.95086089
O     -1.92189940   -0.40674240   -0.85192464
H     -1.53492093    0.93472754    1.46870487
H     -1.66519435   -0.83886260   -1.69243291
H      0.49767305    2.28032056    0.76665607