20

O     -2.86015577    0.50517504    1.06736710
C     -1.63943840    0.43267559    1.20448231
C     -0.81909922   -0.74581348    0.69080815
C      0.19011915    0.70521214   -1.21876997
C      0.42987710   -0.33554531   -0.10733938
C      1.55096186    0.18801295    0.80296978
O      1.92455720   -0.78873313    1.76363844
H      1.22775650    1.07671496    1.35434130
H      2.43853169    0.46570737    0.22324480
H     -1.08838459    1.20221660    1.76772517
O     -1.62267876   -1.62424167   -0.10241642
H     -0.53090687   -1.32461212    1.57432748
H     -2.51722683   -1.22421645   -0.12978544
O      0.96020714    0.37769977   -2.35648445
H      0.80995278   -1.25780369   -0.57078326
H      0.62599223   -0.49433182   -2.63872413
O     -1.14007897    0.78034270   -1.65789742
H      0.49236786    1.70483870   -0.88663524
H     -1.18261730    1.56262745   -2.23558671
H      2.75026315   -1.20592560    1.45551792