20

O     -2.76456403    1.27205645    1.00031933
C     -1.62706975    0.87588014    1.26285066
C     -0.78142579   -0.16629328    0.43780695
C      0.07690868    0.47881650   -0.70844320
C      1.21577991   -0.50360777   -0.31627540
C      0.56904111   -0.60354072    1.07863900
O      3.97179753   -2.57458697    0.22629723
H      0.57538786   -1.60838411    1.51215957
H      0.97696904    0.09569467    1.81743877
H     -1.11756474    1.26892457    2.15855631
O     -1.60232768   -1.29109062    0.00832808
H      4.01416133   -3.38355964   -0.30542593
H     -2.23831440   -0.88210676   -0.61206120
O      2.55078271    0.03574332   -0.35214660
H      1.17178067   -1.45323581   -0.86583655
H      2.88488541   -0.17273711   -1.24254444
O     -0.44628045    0.35597293   -2.05024357
H      0.33095848    1.52852610   -0.50764995
H      0.22505299    0.76938150   -2.62089778
H      3.25601682   -2.74597582    0.85657086