20

O     -2.76863524   -0.53867686    0.73761228
C     -1.80489484    0.17656958    1.00034126
C     -0.35914723   -0.31632435    0.96620688
C      0.38689170    0.40257800   -0.12993759
C      1.22941027   -0.17337761   -0.99468118
C      7.72187528    0.27988919   -0.09273486
O      8.33398867   -0.64933253    0.78257462
H      7.16859066   -0.25734633   -0.86692820
H      7.03114643    0.90447297    0.47858796
H     -1.94227861    1.21626606    1.34916123
O     -0.30469437   -1.72886404    0.77349253
H      0.09064966   -0.09590884    1.93891759
H     -1.20008857   -2.06241890    0.98170381
O      1.87743892    0.56414707   -1.95348468
H      1.47301609   -1.22870478   -0.99687522
H      2.47224194   -0.04119543   -2.43519575
O      0.16570754    1.77140092   -0.22656887
H      8.48815897    0.91126636   -0.54912654
H      0.68438272    2.05450919   -1.01069226
H      8.94070826   -1.18894966    0.24762702
20

O     -1.94264294    1.42704299    0.44696489
C     -0.75265779    0.86652292    1.03929248
C     -0.51483039   -0.62991202    0.77520024
C      0.60591852   -0.03349207   -0.07727860
C      1.47211401   -0.61881564   -0.90805794
C      8.35279254    0.26656963   -0.20072799
O      7.54711328   -0.87736829    0.01511774
H      9.37584719    0.05905361    0.12240886
H      8.35131161    0.50628437   -1.26663402
H     -0.65532834    1.16948337    2.08788390
O     -1.53248428   -1.34104762    0.03560211
H     -0.19708681   -1.20119574    1.65277313
H     -2.16446213   -0.63869948   -0.21491648
O      2.42586119    0.08101936   -1.59331447
H      1.46658038   -1.68414107   -1.09618445
H      2.92364480   -0.54575028   -2.14612311
O      0.43296685    1.18944786    0.27704945
H      7.94606984    1.11106684    0.36098570
H     -1.56759304    1.95953741   -0.27889117
H      7.56775545   -1.06560616    0.96884971
