20

O     -2.76863524   -0.53867686    0.73761228
C     -1.80489484    0.17656958    1.00034126
C     -0.35914723   -0.31632435    0.96620688
C      0.38689170    0.40257800   -0.12993759
C      1.22941027   -0.17337761   -0.99468118
C      7.72187528    0.27988919   -0.09273486
O      8.33398867   -0.64933253    0.78257462
H      7.16859066   -0.25734633   -0.86692820
H      7.03114643    0.90447297    0.47858796
H     -1.94227861    1.21626606    1.34916123
O     -0.30469437   -1.72886404    0.77349253
H      0.09064966   -0.09590884    1.93891759
H     -1.20008857   -2.06241890    0.98170381
O      1.87743892    0.56414707   -1.95348468
H      1.47301609   -1.22870478   -0.99687522
H      2.47224194   -0.04119543   -2.43519575
O      0.16570754    1.77140092   -0.22656887
H      8.48815897    0.91126636   -0.54912654
H      0.68438272    2.05450919   -1.01069226
H      8.94070826   -1.18894966    0.24762702