20

O     -0.82753528   -0.84935027   -0.91240606
C     -1.78956573   -0.06364595   -0.17054560
C     -1.12205139    0.34822719    1.13776628
C      0.33171383    0.51579696    0.68231214
C      0.46440735   -0.68490439   -0.27269783
C      1.55193220   -0.55961945   -1.33392770
O      1.30790693    0.57465341   -2.16877926
H      1.57069115   -1.44392415   -1.97904082
H      2.53696286   -0.43971933   -0.87335361
H     -2.68822449   -0.66842699   -0.02003436
O     -1.25910272   -0.67379272    2.13525680
H     -1.55957789    1.26456066    1.54501285
H     -1.15824751   -1.54074531    1.70138735
O      0.45216695    1.78833226    0.06554114
H      0.65412759   -1.60159267    0.30016137
H      1.05327948    1.68444764   -0.70042871
O      1.26653707    0.44020949    1.73878483
H     -2.03763638    0.80785204   -0.78529929
H      0.78642255    0.71678852    2.53929535
H      0.46579341    0.38485307   -2.62900487