20

O     -1.33154687   -3.23708723    0.31497134
C     -0.63941475   -2.28549458    0.66202695
C      0.50544046   -1.68681490   -0.15687429
C      0.19271196   -0.22179624   -0.37909510
C      0.58534692    0.73983520    0.47710396
C      0.35020080    2.20641783    0.34326281
O     -1.04654152    2.43630370    0.39904248
H      0.73900620    2.59007019   -0.60431490
H      0.83845184    2.74033378    1.16494945
H     -0.79695130   -1.81516788    1.64969087
O      0.70367384   -2.33665410   -1.40079365
H      1.42507570   -1.80750928    0.42503794
H     -0.12768500   -2.19566028   -1.89279407
O      8.25136318    0.00058797    0.18234835
H      1.13584614    0.44918833    1.36938340
H      7.40409836   -0.32211024    0.52435593
O     -0.53124656    0.06102342   -1.52492986
H      8.03794434    0.32152226   -0.70670428
H     -0.83342106    0.98831828   -1.47494612
H     -1.16894680    3.37469374    0.62827878
20

O     -2.18545770    0.43782854    0.65227008
C     -1.08560982    0.98462225    0.68038958
C     -0.54406415   -1.90671070    0.83819712
C      0.32561729   -0.92470243    0.08429056
C      0.11458588    0.40912094    0.01531772
C      0.99738781    1.37363977   -0.71668729
O      0.66716172    2.72332257   -0.42805566
H      0.88732520    1.22216730   -1.79600206
H      2.04624988    1.22438410   -0.44069898
H     -0.92654999    1.94192513    1.20444795
O     -1.55268428   -2.39351799   -0.03729313
H     -1.01250823   -1.47929997    1.72998606
H     -2.15675709   -1.63783882   -0.17498245
O      7.70139570   -0.02676673    0.10665056
H      0.05462289   -2.75765143    1.17997417
H      7.33878966    0.22047419   -0.75726483
O      1.40712389   -1.53890842   -0.53331281
H      6.91705185   -0.19370745    0.65061427
H      1.80726913   -0.95767420   -1.19721836
H      1.15628758    3.27929338   -1.06062249
