20

O     -2.75305058    2.37198888    0.16665464
C     -2.12917110    1.61764323    0.91069269
C     -1.38929076    0.38116396    0.42031247
C      0.12591545    0.56038082    0.62115978
C      0.94694540   -0.71665505    0.31347930
C      1.55444659   -0.79922923   -1.09247732
O      2.31945944   -2.00516735   -1.19705211
H      2.23153900    0.03573543   -1.29278540
H      0.78376335   -0.83328019   -1.86690091
H     -2.09252584    1.79238931    1.99970627
O     -1.68935917    0.08065192   -0.93895988
H     -1.76434879   -0.44927882    1.02828215
H     -1.85975557    0.94951028   -1.36187314
O      0.18770351   -1.91407382    0.54736749
H      1.77886178   -0.75655780    1.02764603
H     -0.47102733   -1.97403254   -0.17622664
O      0.58681870    1.67488663   -0.15199887
H      0.29047454    0.82399255    1.67353540
H      1.51861236    1.84787265    0.07277815
H      1.82398900   -2.68794084   -0.70334011