20

O     -2.36727788    1.15275923    0.68001482
C     -2.04043914    0.14445729    1.29880233
C     -0.82100681   -0.71444699    1.01275270
C      0.33077991   -0.04704401    0.28731489
C      0.16224755    0.96055140   -0.83787429
C      0.67153204   -0.41846862   -1.14779205
O      2.08377483   -0.50329776   -1.44459262
H      0.01090120   -1.06388111   -1.71291455
H      4.60938000    0.99575306   -0.74879044
H     -2.69772155   -0.24968853    2.09357292
O     -1.23981854   -1.91529396    0.36316361
H     -0.45147503   -1.02076782    1.99899738
H     -1.70560715   -1.66058376   -0.45229770
O      1.16731990    1.99961061   -0.89875323
H     -0.82842560    1.20877882   -1.19953837
H      1.64802553    2.02545103   -0.04785242
O      1.49670631    0.18067829    1.12874074
H      2.35386894    0.30510051   -1.92371478
H      2.22661549   -0.38391460    0.80197062
H      4.94830973    0.57244805   -1.25231750