20

O     -3.34246817   -0.63495870    1.50770409
C     -2.21161016    0.03875693    1.11911127
C     -1.19356401   -0.52504011    0.45467771
C      0.05050898    0.15921518    0.13116626
C      1.03084389   -0.37790524   -0.61776647
C      2.33051754    0.24376964   -1.01368050
O      2.33896028    1.63512186   -0.71035998
H      2.50673205    0.11638788   -2.08683195
H      3.15232126   -0.23320362   -0.47167467
H     -2.23618398    1.07370576    1.43836743
O     -1.29767978   -1.82940185    0.00023448
H     -3.06505324   -1.53393317    1.76246404
H     -2.24883275   -1.99551744   -0.12401818
O      8.03475389   -0.02676673    0.10665056
H      0.89598344   -1.38946048   -0.99644390
H      7.67214786    0.22047419   -0.75726483
O      0.17091919    1.42277976    0.67918959
H      7.25041004   -0.19370745    0.65061427
H      1.07121254    1.74143034    0.45170178
H      2.04739289    2.08825327   -1.52384103