20

O      0.52637926    0.86201669    3.51852545
C      0.08947521    0.28756098    2.52122537
C     -0.50305337    1.02565913    1.33008485
C      0.12565784    0.61993981   -0.01947846
C      0.15668754   -0.90568758   -0.26468884
C      0.78544768   -1.30368214   -1.61164315
O      0.14672854   -0.61996151   -2.69156025
H      0.66105877   -2.37856640   -1.78008527
H      1.85016548   -1.05300783   -1.63013911
H      0.03510414   -0.81185971    2.49628059
O     -0.31374879    2.43568789    1.52781535
H     -1.58321608    0.84373381    1.32534773
H     -0.41484187    2.59845949    2.48544808
O     -1.18804820   -1.39895408   -0.22284483
H      0.71776837   -1.41862525    0.52135946
H     -1.66462785   -0.90068553   -0.92081073
O     -0.67280076    1.23651470   -1.05547820
H      1.13726711    1.03492329   -0.10050903
H     -0.35502918    0.88431348   -1.91423469
H      0.46362613   -1.03777922   -3.51461434
20

O     -1.49390344    2.15968858    0.56658169
C     -0.76519577    1.17802088    0.51823273
C     -1.24324037   -0.27214516    0.57658127
C     -0.06499797   -0.97572648   -0.09797397
C      1.16391906   -0.18792500    0.36732481
C      0.73233227    1.27520424    0.36126158
O     -0.33370667    3.12442615   -2.85449265
H      1.17167922    1.82361668    1.19829908
H      0.97512635    1.77337847   -0.58189543
H     -1.12388673    2.81533361   -2.38647739
O     -2.46248456   -0.59083758   -0.05180020
H     -1.30350559   -0.54661390    1.63552729
H     -2.28311122   -0.66249002   -1.00909807
O      2.26680307   -0.37725909   -0.50929852
H      1.45355997   -0.49208279    1.38001465
H      2.03579345   -1.08331737   -1.14423473
O     -0.19635203   -0.94092385   -1.53036312
H     -0.00645292   -2.03230448    0.18065679
H      0.02003048   -0.04828312   -1.85981585
H     -0.67629824    3.76882902   -3.49193831
