20

O     -2.84785645    1.12394094    1.15148132
C     -1.64111107    0.88875749    1.23580123
C     -0.81288055   -0.14863867    0.38181904
C      0.13983019    0.51987921   -0.67241253
C      1.20123180   -0.54950060   -0.29078318
C      0.47583679   -0.70074220    1.06055037
O      7.01874876    0.37070671   -0.08404125
H      0.40491825   -1.72990428    1.42616951
H      0.87793145   -0.07414816    1.86477368
H     -1.03832504    1.45289077    1.96783789
O     -1.66345549   -1.19966880   -0.16211736
H      6.14292940   -0.02233332   -0.21602982
H     -2.27842921   -0.71623000   -0.74812594
O      2.56265116   -0.08427448   -0.22301589
H      1.13629969   -1.45804753   -0.90396778
H      2.93900825   -0.27013240   -1.10143679
O     -0.31828048    0.52030848   -2.04288960
H      0.44056909    1.53723024   -0.38730175
H      0.42206162    0.88827998   -2.55638221
H      7.54252594   -0.34837339    0.30007108
20

O     -2.88740538   -0.09615206    1.71008882
C     -1.86823906    0.37042457    1.23891850
C     -0.72400975   -0.27404333    0.58969042
C     -0.13864623    0.25577885   -0.68229587
C      1.39288111    0.17682391   -0.66354152
C     -0.56028406    0.48646288    1.87179600
O      7.49448565    0.25755964   -0.18146835
H     -0.43550740   -0.06886911    2.79104745
H     -0.11573277    1.46993045    1.85857055
H      1.80943443    0.82224048    0.11566417
O     -0.67092315   -1.71727547    0.70622420
H      6.98733437    0.38851734    0.63376699
H     -1.18350420   -2.10239387   -0.03257513
O      1.88722222    0.60553233   -1.93444399
H      1.73464561   -0.85068313   -0.49848456
H      2.85670299    0.51160958   -1.90483972
O     -0.62486902   -0.54121883   -1.77272332
H     -0.45202545    1.28816168   -0.87836962
H     -0.01973990   -0.33632894   -2.51472639
H      7.27300693   -0.64607698   -0.45229864
