20

O     -2.84785645    1.12394094    1.15148132
C     -1.64111107    0.88875749    1.23580123
C     -0.81288055   -0.14863867    0.38181904
C      0.13983019    0.51987921   -0.67241253
C      1.20123180   -0.54950060   -0.29078318
C      0.47583679   -0.70074220    1.06055037
O      7.01874876    0.37070671   -0.08404125
H      0.40491825   -1.72990428    1.42616951
H      0.87793145   -0.07414816    1.86477368
H     -1.03832504    1.45289077    1.96783789
O     -1.66345549   -1.19966880   -0.16211736
H      6.14292940   -0.02233332   -0.21602982
H     -2.27842921   -0.71623000   -0.74812594
O      2.56265116   -0.08427448   -0.22301589
H      1.13629969   -1.45804753   -0.90396778
H      2.93900825   -0.27013240   -1.10143679
O     -0.31828048    0.52030848   -2.04288960
H      0.44056909    1.53723024   -0.38730175
H      0.42206162    0.88827998   -2.55638221
H      7.54252594   -0.34837339    0.30007108