16
3.796599703258835
C       -0.863435      -1.688991       0.369525
C       -1.567841      -0.860669      -0.419130
C       -1.518128       0.604381      -0.453626
C       -0.769725       1.403592       0.317189
H       -2.195579      -1.315309      -1.189212
H       -0.253181      -1.345758       1.201257
H       -0.951613      -2.762623       0.250044
H       -0.781134       2.479585       0.170404
H       -0.220283       1.040812       1.180955
H       -2.084832       1.059415      -1.264686
C        2.223359      -0.639967      -0.016606
C        2.016468       0.469885      -0.727998
H        2.521031      -0.587114       1.026546
H        2.157717      -1.636646      -0.447842
H        1.752859       0.441224      -1.779826
H        2.216083       1.454957      -0.313642
16
3.215221327409381
C       -0.897153      -1.706540       0.374051
C       -1.599608      -0.884233      -0.412661
C       -1.548165       0.586314      -0.463725
C       -0.799719       1.395874       0.297757
H       -2.250661      -1.341050      -1.169697
H       -0.256089      -1.354419       1.179346
H       -0.995823      -2.778198       0.271715
H       -0.812814       2.468748       0.139606
H       -0.227284       1.037538       1.150394
H       -2.121383       1.028888      -1.272356
C        2.221334      -0.673624      -0.092386
C        2.027551       0.442166      -0.791013
H        2.518534      -0.637162       0.952331
H        2.137233      -1.663509      -0.535042
H        1.753342       0.430900      -1.838680
H        2.213047       1.419670      -0.356232
16
2.2965096007683314
C       -0.913111      -1.740197       0.376299
C       -1.628892      -0.937301      -0.423664
C       -1.592963       0.529511      -0.475763
C       -0.861697       1.344559       0.296443
H       -2.276335      -1.405336      -1.164994
H       -0.239393      -1.362802       1.139599
H       -1.003746      -2.819908       0.301655
H       -0.898165       2.421645       0.155630
H       -0.257185       0.981514       1.121816
H       -2.179294       0.975658      -1.277551
C        2.263556      -0.688374      -0.204365
C        2.051142       0.450460      -0.866269
H        2.571514      -0.686160       0.837946
H        2.153400      -1.663825      -0.673239
H        1.750472       0.467493      -1.910535
H        2.209825       1.417173      -0.395738
