16
0.5376093039230909
C       -0.939242      -1.558118       0.124879
C       -1.741768      -0.669813      -0.472592
C       -1.868645       0.759186      -0.156736
C       -0.976040       1.525182       0.479686
H       -2.396723      -1.027070      -1.269085
H       -0.287000      -1.285378       0.951057
H       -0.919245      -2.596728      -0.191249
H       -1.174420       2.576498       0.668820
H       -0.011391       1.150936       0.811303
H       -2.790989       1.224522      -0.502970
C        2.742807      -0.437727       0.428457
C        2.386442       0.246741      -0.656955
H        3.362189       0.001960       1.205654
H        2.433249      -1.469180       0.587201
H        1.763291      -0.189484      -1.432320
H        2.696667       1.277109      -0.811936
16
0.4972869476187043
C       -0.940860      -1.553728       0.131665
C       -1.740308      -0.667337      -0.476073
C       -1.868548       0.763181      -0.160437
C       -0.975415       1.529173       0.480582
H       -2.390405      -1.026391      -1.275664
H       -0.295834      -1.276377       0.961616
H       -0.916410      -2.594367      -0.178466
H       -1.175791       2.580227       0.670585
H       -0.011406       1.152472       0.812036
H       -2.790416       1.229068      -0.507020
C        2.753977      -0.436298       0.439675
C        2.396673       0.247570      -0.646046
H        3.377453       0.001020       1.215736
H        2.440174      -1.465877       0.597248
H        1.769858      -0.188735      -1.418876
H        2.710815       1.276541      -0.804212
