20

O     -2.20608783    1.61363906    1.24451700
C     -1.18343268    0.95107220    1.43388412
C     -0.59289848   -0.15856234    0.48911425
C     -0.24354735    0.34489208   -0.95857171
C      1.05691749   -0.47666790   -0.87728530
C      0.93704654   -0.45492113    0.65943462
O      7.21681239    0.25755964   -0.18146835
H      1.13821332   -1.43106457    1.11629179
H      1.94080119    0.02005765   -1.28784045
H     -0.59938513    1.12155050    2.35398607
O     -1.43220141   -1.35457960    0.49217228
H      6.70966111    0.38851734    0.63376699
H     -2.12097013   -1.13485675   -0.16824633
O      1.73073782    0.55569414    1.31948457
H      0.98640097   -1.48008922   -1.31237791
H      2.64224207    0.21032931    1.30375393
O     -1.17580693   -0.05671632   -1.98786831
H     -0.06872157    1.42741654   -1.00534198
H     -0.80930789    0.30280636   -2.81510664
H      6.99533367   -0.64607698   -0.45229864