20

O     -2.30983820    1.80377927    0.84691433
C     -1.59630599    0.90437297    1.29336103
C     -0.78177978   -0.15946466    0.46675169
C      0.05240794    0.44310845   -0.71936992
C      1.21253753   -0.50277621   -0.30366184
C      0.57585019   -0.58638019    1.09525070
O      7.13170628    0.32678717   -0.03285015
H      0.58932604   -1.58449748    1.54356970
H      0.98598058    0.12563446    1.82097951
H     -1.48351194    0.80188331    2.38603232
O     -1.62533843   -1.27844872    0.06858977
H      7.17407008   -0.48218550   -0.56457332
H     -2.01953606   -0.97050074   -0.77338709
O      2.53672147    0.06009940   -0.36083137
H      1.18649525   -1.46654616   -0.82912964
H      2.83012315   -0.07563157   -1.27911019
O     -0.50183211    0.22642906   -2.03957086
H      0.28830201    1.50648062   -0.58071309
H      0.06039837    0.75245821   -2.63567505
H      6.41592557    0.15539832    0.59742347