20

O     -2.24945538    0.96412721   -1.28825025
C     -2.17849574    0.38779497   -0.20340708
C     -0.94352595   -0.33982746    0.27678485
C      0.26270963    0.60553949    0.34287235
C      1.38982409   -0.40311845    0.31721537
C      0.86893222   -1.40025880   -0.70169156
O     -0.89941352   -4.33351170    0.25900354
H      1.10191186   -1.08637140   -1.72508375
H      1.27438615   -2.40398082   -0.54609719
H     -3.02419839    0.40643078    0.50438962
O     -0.56356172   -1.43575438   -0.56585239
H     -1.17185215   -0.75287589    1.26720048
H     -1.56528180   -3.76601347    0.67556829
O      0.43805683    1.47571074   -0.76181363
H      1.50412234   -0.87944968    1.29863929
H     -0.42122889    1.56813827   -1.22357497
O      0.26252066    1.38564436    1.51409661
H      2.35921433    0.01273883    0.02643513
H      1.09064011    1.89551219    1.46813713
H     -1.10338473   -5.21918384    0.59507138