20

O     -1.26617338    2.19843737    1.58251053
C     -1.63929500    1.06826223    1.26187200
C     -0.79430431   -0.04031720    0.53776916
C     -0.28908494    0.36685173   -0.89584570
C      1.04803373   -0.34587624   -0.55107084
C      0.72556063   -0.08266134    0.94453343
O      1.14677133   -1.10827029    1.87139387
H     -0.74890928   -2.82230233    3.16313321
H      1.10208755    0.89033411    1.28881476
H     -2.68081247    0.76980179    1.46996293
O     -1.49242186   -1.32660608    0.53913293
H     -0.13147512   -3.15133910    3.40419309
H     -1.83340377   -1.40709254   -0.37442859
O      2.25282279    0.25881505   -1.06450839
H      1.03796660   -1.41701680   -0.79524523
H      2.42244076   -0.19094443   -1.91124665
O     -1.05215380   -0.20129351   -1.98889037
H     -0.18649057    1.45126893   -1.03156721
H     -0.61689537    0.13269486   -2.79477134
H      2.11535206   -1.01638764    1.91158470