20

O     -2.27322510   -0.53343443    2.36568142
C     -1.12900097   -0.17198201    2.08610240
C     -0.33617980   -0.78989499    0.94364214
C      0.33200959    0.24098734    0.06112111
C      0.18608480    0.24247313   -1.44886118
C      1.47328343   -0.20126293   -0.82464164
O      7.42388016   -0.25911128   -0.22059204
H      1.71264130   -1.25757360   -0.86811711
H      2.33725236    0.44848151   -0.89833399
H     -0.59186067    0.55970327    2.71290801
O     -1.18694467   -1.64337086    0.17228570
H      0.42975645   -1.42208051    1.40608819
H     -2.00565041   -1.74917727    0.70097845
O      0.22040404    1.54969264   -2.05685372
H     -0.44046693   -0.51502175   -1.90858764
H      0.31850127    1.47210709   -3.02318281
O      0.50740917    1.55113156    0.64732216
H      7.22409445    0.66787728   -0.41993818
H      0.44598614    2.21922180   -0.06755150
H      7.00551079   -0.40876600    0.64053021
20

O     -2.48711780   -0.65831647    2.23480413
C     -1.40618569   -0.32723215    1.74619257
C     -1.11830091   -0.04923240    0.24257386
C      0.33748458   -0.19661939   -0.28305676
C      0.35538345    1.34886946   -0.09687755
C      0.45904288   -0.64264592   -1.73444156
O      7.56010020    0.14218672   -0.07618027
H     -0.21872633   -0.08437134   -2.38937522
H      1.47947131   -0.49065758   -2.10198146
H     -0.52582813   -0.24494729    2.40670872
O     -1.09411783    1.37728561   -0.09195388
H     -1.85106185   -0.56749660   -0.38951445
H      0.21829562   -1.70617323   -1.83532021
O      0.91932020    1.81306422    1.14062246
H      0.76290526    1.90976512   -0.94414610
H      1.76226582    1.32831109    1.20602105
O      1.28794190   -0.93328042    0.53562526
H      7.14849621   -0.66219620   -0.42619637
H      1.11922752   -1.87632272    0.35411913
H      6.88077489    0.52000947    0.50237663
