20

O     -2.27322510   -0.53343443    2.36568142
C     -1.12900097   -0.17198201    2.08610240
C     -0.33617980   -0.78989499    0.94364214
C      0.33200959    0.24098734    0.06112111
C      0.18608480    0.24247313   -1.44886118
C      1.47328343   -0.20126293   -0.82464164
O      7.42388016   -0.25911128   -0.22059204
H      1.71264130   -1.25757360   -0.86811711
H      2.33725236    0.44848151   -0.89833399
H     -0.59186067    0.55970327    2.71290801
O     -1.18694467   -1.64337086    0.17228570
H      0.42975645   -1.42208051    1.40608819
H     -2.00565041   -1.74917727    0.70097845
O      0.22040404    1.54969264   -2.05685372
H     -0.44046693   -0.51502175   -1.90858764
H      0.31850127    1.47210709   -3.02318281
O      0.50740917    1.55113156    0.64732216
H      7.22409445    0.66787728   -0.41993818
H      0.44598614    2.21922180   -0.06755150
H      7.00551079   -0.40876600    0.64053021