20

O     -3.20046776    1.96795042    0.42396167
C     -2.05582926    1.62136681    0.13702018
C     -1.67734421    0.19420384   -0.21348679
C     -0.34413219   -0.22426005    0.48518575
C      0.82539964   -0.39274133   -0.49775266
C      2.16323792   -0.70330058    0.17045385
O      3.21868562   -0.44672848   -0.75088016
H      2.22517523   -1.74623809    0.49620625
H      2.34867410   -0.06907284    1.04088751
H     -1.25475821    2.37277830    0.02781467
O     -1.60089299    0.13274805   -1.64420056
H     -2.49294783   -0.46713648    0.10022327
H     -2.50111870    0.30673589   -1.97882649
O     -0.02470612    0.67975780    1.53508661
H      0.93703048    0.51139034   -1.10705215
H      0.74860750    1.20770223    1.26884757
O     -0.51123329   -1.47439703    1.14057741
H      0.60979405   -1.21833187   -1.19097091
H     -0.48780514   -1.23982120    2.08613213
H      3.07463114   -1.01260571   -1.52922717
20

O     -2.11179596    2.04119482   -1.52276689
C     -1.52648084    1.38569324   -0.69237841
C     -1.82751404    0.15248662    0.19172524
C     -0.34036843    0.36144152    0.61216469
C      0.62908110   -0.74267689    0.18676552
C      2.01121466   -0.22126380   -0.18433312
O      2.59865815   -1.07279074   -1.16484806
H      2.67236740   -0.18772958    0.68665798
H      1.98378400    0.78088293   -0.61907554
H     -2.17814648    4.61718554   -3.15318620
O     -2.20422893   -1.05114195   -0.52783711
H     -2.55977393    0.37350922    0.97458261
H     -2.92274354   -0.76801148   -1.12428567
O     -0.25726901    1.53113652   -0.24715290
H      0.22763640   -1.30308083   -0.66448108
H     -1.51346847    4.78065693   -2.87197410
O     -0.12786126    0.71168578    1.99215121
H      0.72988786   -1.47983652    0.99506739
H      0.47215108    1.47701531    1.94903898
H      2.55325526   -1.98851416   -0.84099481
