20

O     -3.20046776    1.96795042    0.42396167
C     -2.05582926    1.62136681    0.13702018
C     -1.67734421    0.19420384   -0.21348679
C     -0.34413219   -0.22426005    0.48518575
C      0.82539964   -0.39274133   -0.49775266
C      2.16323792   -0.70330058    0.17045385
O      3.21868562   -0.44672848   -0.75088016
H      2.22517523   -1.74623809    0.49620625
H      2.34867410   -0.06907284    1.04088751
H     -1.25475821    2.37277830    0.02781467
O     -1.60089299    0.13274805   -1.64420056
H     -2.49294783   -0.46713648    0.10022327
H     -2.50111870    0.30673589   -1.97882649
O     -0.02470612    0.67975780    1.53508661
H      0.93703048    0.51139034   -1.10705215
H      0.74860750    1.20770223    1.26884757
O     -0.51123329   -1.47439703    1.14057741
H      0.60979405   -1.21833187   -1.19097091
H     -0.48780514   -1.23982120    2.08613213
H      3.07463114   -1.01260571   -1.52922717