20

O     -2.43804197    1.23570722    1.69001113
C     -2.19924083    0.33652771    0.88799371
C     -0.88637933   -0.42957390    0.83168103
C      0.07827940    0.19572549   -0.14103645
C      1.50437451   -0.30557135   -0.20349278
C      1.21093030    1.06237412    0.34105603
O      7.20704280   -0.02987845    0.38086036
H      1.33813270    1.21080592    1.40783296
H      1.50050352    1.92144705   -0.25192577
H     -2.92447453    0.08602918    0.09363403
O     -1.13058727   -1.77712487    0.42762795
H     -0.47274652   -0.45894008    1.84571385
H     -1.27978148   -1.74800598   -0.53547669
O      2.08476058   -0.32457994   -1.52205696
H      1.81045564   -1.07386304    0.49980747
H      2.06455621   -1.22467882   -1.89462398
O     -0.48747077    0.50945492   -1.43347362
H      7.77285765    0.07006107   -0.39941309
H      0.22672984    0.78426637   -2.04327193
H      6.30838380   -0.04018263    0.01855273
20

O     -1.13231934   -0.08462560    2.32532675
C     -1.86647959    0.16124910    1.38099868
C      0.27788367   -1.37815851   -0.19086654
C     -0.10352531    0.07827518   -0.23731874
C      0.90038165    1.15790259    0.09339935
C      0.46488715    0.95360561   -1.32836625
O      7.49725734    0.14218672   -0.07618027
H     -0.17529387    1.70801713   -1.76949957
H      1.18599687    0.53136514   -2.01850848
H     -2.95798267    0.28467356    1.45320410
O     -0.80171490   -2.18064090   -0.67075789
H      0.49862568   -1.68793193    0.83498801
H     -1.12171923   -1.75746578   -1.48537454
O      2.24114553    0.73462094    0.38502496
H      0.53880385    2.04887668    0.59728358
H      2.38237894    0.67465271    1.34762812
O     -1.48869108    0.34864478    0.08887056
H      7.08565334   -0.66219620   -0.42619637
H      1.15762265   -1.59306069   -0.80603209
H      6.81793202    0.52000947    0.50237663
