20

O     -0.23068034    2.28077097   -1.70632043
C     -0.56148120    1.80740150   -0.62901311
C     -1.18209559    0.41034716   -0.49147053
C     -0.50497823   -0.45694531    0.60474217
C      0.74806876   -1.22748279    0.14093201
C      1.86934588   -0.36123278   -0.41066804
O     -0.50396053    2.52262970    0.51887840
H      2.77138032   -0.96605204   -0.55220505
H      1.60397316    0.05784883   -1.38544281
H      2.11710856    0.45849283    0.26967479
O     -1.19766403   -0.27553485   -1.75229038
H     -2.23383262    0.58120108   -0.22935509
H     -1.30907159    0.41781146   -2.43374161
O     -0.21336553    0.35112954    1.74706635
H      0.47139583   -1.98430344   -0.60384681
H      0.42172603   -0.14955383    2.29016270
O     -1.48029840   -1.39117793    1.07097008
H      1.15093438   -1.79103446    0.99331434
H     -1.04403344   -2.23840141    1.25297740
H     -0.69247141    1.95408575    1.30563563