20

O     -1.40478021    2.13096015    1.01802216
C     -0.32296233    1.71382208    0.60872758
C     -0.15560578    0.28703500    0.19716848
C     -1.30185735   -0.28186906   -0.61997202
C      1.24602357   -0.24042670   -0.09253815
C      0.59326219   -0.59612905    1.20129821
O      7.23378632    0.25755964   -0.18146835
H      0.27835478   -1.62490883    1.33751797
H      0.97059934   -0.14110426    2.11004114
H      0.55975252    2.36829060    0.55421413
O     -1.44704980   -1.67435080   -0.40912102
H      6.72663505    0.38851734    0.63376699
H     -2.37997075   -1.85727061   -0.61460581
O      2.31619119    0.71326187   -0.01858077
H      1.35382877   -1.04852319   -0.81185914
H      3.17993086    0.27093169    0.07346044
O     -1.09549756   -0.08304378   -2.00708458
H     -2.24754356    0.20049465   -0.35181877
H     -0.14267590   -0.13716975   -2.17486987
H      7.01230761   -0.64607698   -0.45229864