20

O     -1.94092310    1.02198516    2.44778742
C     -1.57919581    1.02223943    1.27059115
C     -0.77913810   -0.10225218    0.50285061
C      0.02614935    0.41170282   -0.74310784
C      1.18609594   -0.52164244   -0.29901439
C      0.59937776   -0.47350802    1.12511662
O   3235189.36615391 1268.13475819 2633339.95181590
H      0.62738156   -1.42648868    1.66217767
H      1.03258937    0.30135485    1.76827820
H     -1.81627353    1.90060534    0.64649777
O     -1.61937400   -1.25673632    0.20531544
H   3235188.48330121 1268.31918355 2633340.30610307
H     -1.97862707   -1.06359111   -0.68280116
O      2.51235137    0.01656141   -0.45775440
H      1.12430927   -1.52483240   -0.74113026
H      2.82575714   -0.31810166   -1.31621788
O     -0.58519162    0.13074265   -2.02406964
H      0.28575599    1.47674661   -0.68211207
H      0.07895548    0.40521453   -2.68240723
H   3235189.80608926 1267.64502326 2633340.66285569