20

O      0.66301512    1.68491873    3.34296410
C      0.18955254    1.52072335    2.23287950
C      0.92549612    1.04457445    1.01967291
C      0.37816202   -0.28126875    0.48935411
C     -0.67755430   -0.12248945   -0.64243823
C     -0.88591186   -1.41009883   -1.45640903
O      0.31515794   -1.66619468   -2.20558567
H     -1.69435610   -1.27696642   -2.18213256
H     -1.09833194   -2.27134008   -0.81692336
H      0.92361669    1.84569520    0.27424390
O     -1.09756405    1.83033414    1.99298887
H      1.97566588    0.92372283    1.31544473
H     -1.39982403    2.21401978    2.84410579
O     -0.27300392    0.89243823   -1.57401287
H     -1.62964207    0.19727971   -0.20570809
H      0.39737568    0.47267125   -2.14867204
O      1.51624812   -1.05799854    0.07767373
H     -0.08696787   -0.85586473    1.30035887
H      1.42965301   -1.25076751   -0.87867609
H      0.12921303   -2.43338864   -2.77912858
20

O     -2.37422977   -2.43144256    0.05684444
C     -1.93427140   -1.30617579    0.22449224
C     -0.72121395   -0.95648653    1.02730832
C      0.44487466   -0.61063750    0.09998782
C      0.81280898    0.91282052    0.01714380
C      0.71391145    1.43938892   -1.41057999
O      2.15332206    1.11026901    0.45319750
H      1.02065991    2.49123439   -1.45703607
H      1.37813182    0.88508729   -2.08269900
H     -0.98614546   -0.17335158    1.74282349
O     -2.52443867   -0.24558224   -0.34996585
H     -0.48242680   -1.83422672    1.64139338
H     -3.31461864   -0.61781124   -0.79612404
O      0.01153270    1.71164534    0.86205756
H     -0.31178577    1.38206888   -1.78758285
H      0.41158890    2.59655345    0.80742126
O      1.61627905   -1.33450836    0.56060978
H      0.25593487   -0.98703749   -0.91333677
H      1.42822240   -2.28467504    0.44452007
H      2.40186364    0.25286727    0.85952490
