20

O      0.55708877    2.53450706   -1.46996474
C     -0.16898617    1.56814427   -1.23399019
C      0.33847535    0.13891677   -1.30386326
C      0.65954229   -0.49921140    0.07990766
C     -0.02154466    0.11912587    1.30490207
C     -1.50211851   -0.19859201    1.46252504
O     -2.17733638   -0.19841657    0.21501473
H     -1.97322180    0.55030089    2.10755846
H     -1.64307214   -1.17468280    1.93950577
H     -1.23164963    1.70378024   -0.97807527
O      1.54436262    0.12755564   -2.10957710
H     -0.40611394   -0.44942773   -1.85025068
H      1.86511801    1.05674232   -2.11211071
O      0.34633679   -1.88782327    0.04427651
H      0.13091196    1.20540781    1.29814872
H      0.89915277   -2.26686954    0.75119357
O      2.06808074   -0.45977127    0.30355355
H      0.48684714   -0.21812682    2.21882407
H      2.45262757   -0.51881513   -0.59700204
H     -2.22450076   -1.13274431   -0.07057615
20

O     -0.31705830   -2.62987651   -1.83944595
C      0.23493907   -1.79198791   -1.12599834
C     -0.08407302   -0.29428025   -1.18587242
C     -0.72423268    0.18329629    0.17072928
C      0.13463087   -0.00560705    1.43455819
C      1.42379211    0.79764791    1.49812495
O      1.10456558    0.41268689   -1.49937274
H      1.89615965    0.65877922    2.47658902
H      2.14470272    0.47233502    0.74477688
H      1.03089926   -2.08392568   -0.42110352
O     -0.99603084   -0.00034356   -2.24495895
H      1.23459175    1.86759019    1.37006017
H     -1.05171319   -0.82580311   -2.76774827
O     -1.05054165    1.56826504    0.03521649
H      0.35533955   -1.06912865    1.58335781
H     -1.46749356    1.62189455   -0.85077530
O     -1.96863287   -0.46861230    0.39483309
H     -0.46620908    0.28428375    2.30762166
H     -2.35280208   -0.03599301    1.17688923
H      0.91916673    1.33877917   -1.25748132
