20

O     -2.88131226    1.92530092   -0.80383374
C     -1.94666673    1.32458208   -1.32909475
C     -0.59991804    1.12540483   -0.65383188
C     -0.57261803   -0.26479188    0.00034280
C      0.78755292   -0.59862064    0.64094204
C      1.94097068   -0.70452215   -0.35662997
O      3.14371849   -1.03142851    0.33986053
H      2.11127210    0.23009612   -0.89559380
H      1.75989663   -1.50594294   -1.08040601
H     -2.06944123    0.82572629   -2.30521485
O     -0.35107737    2.13591571    0.31362956
H      0.15919492    1.21865016   -1.43552220
H     -1.11084383    2.12857289    0.92932629
O      0.67390836   -1.87925779    1.29994237
H      1.03633322    0.11563921    1.43439459
H     -0.15045082   -1.80925017    1.82541059
O     -1.53916462   -0.34168655    1.07651620
H     -0.84952006   -1.04533042   -0.71862933
H     -2.42657546   -0.13685578    0.72490207
H      2.88474116   -1.71220137    0.99348949
20

O     -3.40182319    0.31511498    1.72588526
C     -2.80579044    0.11019593    0.66879239
C     -1.40038131   -0.50680160    0.59584531
C     -0.46013083    0.51476865   -0.05790334
C      0.95346232   -0.03482071   -0.24200945
C      1.93317258    1.04603606   -0.70511342
O      3.21479296    0.44588899   -0.90317294
H      2.02645358    1.85512581    0.02582499
H      1.62480561    1.46724618   -1.66702328
H     -3.26602503    0.35903873   -0.30254505
O     -0.91073847   -0.81522752    1.88651995
H     -0.41967109    1.41922445    0.56185886
H     -1.70555226   -1.01379625    2.41854812
O      0.90628055   -1.07259011   -1.23479819
H      1.33186743   -0.49427379    0.67752368
H      1.82725018   -1.15985134   -1.56267249
O     -1.49866007   -1.70238513   -0.15093809
H     -0.86255706    0.79516942   -1.04051195
H     -0.67131718   -1.78072345   -0.67172272
H      3.58456174    0.25266071   -0.02238764
