20

O     -1.32277594    2.78159898    0.25894205
C     -1.49019691    1.65848982    0.72741013
C     -0.40051430    0.85971797    1.42465332
C      0.01707042   -0.36409001    0.59461770
C      0.47414547   -0.01562549   -0.83231845
C      0.28864435   -1.20252661   -1.78690402
O      0.23043255   -0.72816290   -3.13309404
H     -0.65351050   -1.72474062   -1.59599904
H      1.11584584   -1.91525092   -1.72158880
H     -2.45610878    1.14111367    0.60242425
O     -0.87450260    0.39099177    2.69619688
H      0.45417682    1.51198874    1.62918281
H     -1.64853257   -0.18407052    2.55555601
O      1.85903538    0.35832402   -0.82681267
H     -0.07769162    0.83691647   -1.23707586
H      2.28454743   -0.23106738   -0.16733000
O      1.09391908   -1.05302577    1.26475636
H     -0.82590202   -1.06410670    0.56569124
H      0.94668185   -0.93697977    2.22655777
H      0.98523604   -0.11949477   -3.24486564