20

O     -1.31961023    1.57630361    2.09409198
C     -1.68647592    0.49956237    1.63275170
C     -0.80444703   -0.47042210    0.85646115
C      0.16552418    0.20496794   -0.08069833
C      1.15652290   -0.64274386   -0.85375309
C      1.63689844    0.26414500    0.23899170
O      7.09677877   -0.02987845    0.38086036
H      1.99895322   -0.20895868    1.14508209
H      2.20169843    1.14492574   -0.04084291
H     -2.70471199    0.12770502    1.84554525
O     -1.64027004   -1.33996119    0.08877476
H     -0.28862006   -1.09047736    1.59790506
H     -1.92981603   -0.81637758   -0.68159405
O      1.44973750   -0.18968986   -2.18924345
H      1.15750388   -1.71273219   -0.67292336
H      0.70839742   -0.39142030   -2.78824428
O     -0.40429544    1.26868371   -0.87550609
H      7.66259361    0.07006107   -0.39941309
H      0.30301081    1.77648977   -1.31679811
H      6.19811976   -0.04018263    0.01855273
20

O     -2.12942537    2.06679098    0.97784906
C     -2.14551322    0.85794346    0.75014778
C     -0.94218436   -0.06295048    0.79290074
C      0.32321707    0.42909353    0.06112062
C      1.36987538   -0.85419021   -1.18878999
C      1.56846995   -0.45325980    0.26364263
O      7.03924161    0.14218672   -0.07618027
H      1.47480224   -1.26101920    0.99339205
H      2.49267098    0.10156846    0.45368295
H     -3.11334250    0.35715467    0.57782301
O     -1.37475465   -1.31484409    0.21264301
H     -0.73045670   -0.26301069    1.84842620
H     -1.34572443   -1.18064390   -0.75733409
O      0.26714591    0.07242243   -1.34927149
H      2.20008527   -0.61676980   -1.85896657
H      1.04915137   -1.88854135   -1.34424757
O      0.58604719    1.82569828    0.23078475
H      6.62763761   -0.66219620   -0.42619637
H      0.44993588    2.18455770   -0.66380310
H      6.35991629    0.52000947    0.50237663
