20

O     -1.27860669    2.09213417    1.54273014
C     -1.59285415    0.92221510    1.31965890
C     -0.78694428   -0.13925528    0.48102929
C      0.03932450    0.45340811   -0.71553984
C      1.19857013   -0.49775082   -0.30507547
C      0.57466800   -0.56788306    1.10022487
O      7.12239268    0.32678717   -0.03285015
H      0.58662881   -1.56344807    1.55447637
H      0.99429367    0.14612483    1.81827839
H     -2.53824372    0.53375602    1.73540938
O     -1.63578149   -1.26024684    0.08993093
H      7.16475648   -0.48218550   -0.56457332
H     -1.83949135   -1.07190192   -0.85014448
O      2.52813056    0.04902437   -0.38221716
H      1.15803216   -1.46472963   -0.82392378
H      2.80243476   -0.07142205   -1.30774233
O     -0.54054100    0.22207578   -2.02370551
H      0.28604516    1.51592910   -0.59511255
H      0.04433492    0.70197020   -2.63827716
H      6.40661197    0.15539832    0.59742347
20

O     -0.41987496    1.38449245   -0.79061971
C     -0.89949324    1.38092854    0.57938128
C     -0.62840074   -0.11468380    0.73197616
C     -0.18925427   -0.03535049   -0.73039194
C      1.21162222   -0.56489740   -0.33825468
C      0.80317505   -0.46217038    1.14562745
O      6.98672974    0.25755964   -0.18146835
H      0.90134162   -1.40508955    1.69426441
H      1.32237445    0.31540722    1.71653225
H     -1.95439676    1.66879685    0.62733978
O     -1.69903229   -1.01255121    1.08379960
H      6.47957846    0.38851734    0.63376699
H     -2.11223211   -1.23833134    0.22661695
O      2.35263225    0.23169798   -0.72535334
H      1.36379764   -1.60275845   -0.65974888
H      2.32027543    0.26138086   -1.69766605
O     -0.96413329   -0.76029589   -1.69099950
H     -0.31421262    2.04875346    1.21840279
H     -1.09418836   -0.09532885   -2.39090655
H      6.76525102   -0.64607698   -0.45229864
