20

O      0.46007589   -0.95372994   -1.92109584
C     -0.75555012   -0.96207667   -1.83379493
C     -1.59838778   -0.30463673   -0.78499270
C     -0.92963937   -0.10827197    0.57534329
C      0.36006981    0.74608012    0.57811521
C      1.63978672   -0.08447782    0.74828998
O      2.74895868    0.82040287    0.80397463
H      1.80812229   -0.79264812   -0.06186348
H      1.62499221   -0.62936150    1.69809078
H     -1.95361162    0.65393962   -1.18047502
O     -1.49691263   -1.55073761   -2.79137726
H     -2.49054341   -0.92659101   -0.63025347
H     -0.84549659   -1.88355358   -3.44396873
O      0.30220680    1.64787539    1.71317274
H      0.42396808    1.38495606   -0.30935458
H      1.22149975    1.97953570    1.80291278
O     -1.91961298    0.54337115    1.40054067
H     -0.73451966   -1.08194324    1.03855093
H     -1.41762470    1.22098030    1.90765573
H      3.55221862    0.28088697    0.69052927