20

O     -2.33451461   -0.50594656    1.05549337
C     -1.18641514   -0.31762021    1.45734563
C      0.04348615   -0.93886404    0.80254183
C      0.69848321    0.01519924   -0.16471519
C      0.08741775    0.97518700   -0.86984857
C      8.43041793    0.15883408    0.10229504
O      7.04763796    0.11682930   -0.19846677
H      9.00495572   -0.13899754   -0.77822969
H      8.70201902    1.17892002    0.38385953
H     -0.98261818    0.35894648    2.30462221
O     -0.29795885   -2.13812772    0.11673202
H      0.73574723   -1.20135017    1.60967430
H     -1.16602527   -1.97487220   -0.29704556
O      0.79901788    1.79691659   -1.70830243
H     -0.97580712    1.18118278   -0.85326370
H      0.16808620    2.39227085   -2.15495930
O      2.07317845   -0.13669895   -0.29855573
H      8.64374150   -0.51573756    0.93510196
H      2.33792231    0.49377691   -0.99971887
H      6.83644015   -0.79984830   -0.44456007
20

O     -1.74919204   -0.55866117   -1.04619399
C     -1.01359770    0.36079783   -0.20469144
C     -0.49154973   -0.21615866    1.13181020
C      0.91168358    0.09647250    0.59873855
C      0.45245529    0.50069109   -0.60967515
C      7.58168987    0.26656967   -0.20072807
O      6.77601142   -0.87736874    0.01511801
H      8.60474465    0.05905451    0.12240893
H      7.58020885    0.50628403   -1.26663419
H     -1.56426918    1.30258263   -0.09620826
O     -0.74848793   -1.62210056    1.36010413
H     -0.79543194    0.36450948    2.01008571
H     -1.07153840   -1.93437412    0.49235830
O      0.96147427    0.89667089   -1.71391455
H     -1.63615622   -0.18522084   -1.93939287
H      1.92967051    0.80640280   -1.67750634
O      2.05585386   -0.04192354    1.15310115
H      7.17496652    1.11106679    0.36098529
H      2.75908565    0.23031166    0.54138454
H      6.79665365   -1.06560626    0.96885004
