20

O     -1.74919204   -0.55866117   -1.04619399
C     -1.01359770    0.36079783   -0.20469144
C     -0.49154973   -0.21615866    1.13181020
C      0.91168358    0.09647250    0.59873855
C      0.45245529    0.50069109   -0.60967515
C      7.58168987    0.26656967   -0.20072807
O      6.77601142   -0.87736874    0.01511801
H      8.60474465    0.05905451    0.12240893
H      7.58020885    0.50628403   -1.26663419
H     -1.56426918    1.30258263   -0.09620826
O     -0.74848793   -1.62210056    1.36010413
H     -0.79543194    0.36450948    2.01008571
H     -1.07153840   -1.93437412    0.49235830
O      0.96147427    0.89667089   -1.71391455
H     -1.63615622   -0.18522084   -1.93939287
H      1.92967051    0.80640280   -1.67750634
O      2.05585386   -0.04192354    1.15310115
H      7.17496652    1.11106679    0.36098529
H      2.75908565    0.23031166    0.54138454
H      6.79665365   -1.06560626    0.96885004