20

O     -1.60371995    2.64836353   -1.35699432
C     -1.58710211    1.64586815   -0.66515417
C     -0.75312757    1.43577295    0.56626696
C     -0.17968626    0.02247529    0.64899441
C      0.84122181   -0.25809956   -0.47887716
C      0.91723272   -1.74567401   -0.84865952
O      1.18079428   -2.56462153    0.28578766
H      1.71956187   -1.91860800   -1.57335507
H     -0.02722791   -2.07669067   -1.29205413
H      0.05841204    2.17283222    0.57342068
O     -2.41323359    0.61889510   -0.93660857
H     -1.37712484    1.64833166    1.44199712
H     -2.92289063    0.91962995   -1.72041188
O      2.14129924    0.17590040   -0.04558280
H      0.59771821    0.29572249   -1.39111264
H      2.08736883    0.18916164    0.93511968
O      0.51190856   -0.10220260    1.91060360
H     -0.98550171   -0.72000274    0.62867352
H     -0.16961382   -0.21054342    2.59938769
H      1.96371084   -2.17651086    0.71855896