20

O     -2.64903381   -1.63273614    0.63755924
C     -1.77594411   -1.09143478    1.31685845
C     -0.28745312   -1.36636844    1.12980308
C      0.36352574   -0.18509846    0.44995032
C     -0.03705651    0.32817088   -0.72993020
C      0.54420350    1.48526749   -1.48162627
O      1.64319152    2.04803067   -0.77261791
H     -0.21672124    2.26023081   -1.61555981
H      0.89461445    1.15287683   -2.46330879
H     -2.03181173   -0.35182543    2.09438638
O     -0.06086519   -2.53890976    0.35608470
H      0.14003198   -1.53420299    2.12390424
H     -0.84872740   -2.64199005   -0.21024769
O     -4.81408854    0.37610658    0.35444063
H     -0.88470389   -0.13770217   -1.23137944
H     -5.59598593   -0.06326410    0.72125240
O      1.43970367    0.34765167    1.13851610
H     -4.71589028    1.17185259    0.89859723
H      1.81434250    1.05813921    0.56771687
H      1.95270365    2.79990070   -1.31010925