20

O     -2.60989356    2.12200173   -0.22922614
C     -1.85290814    1.98282366    0.73158076
C     -1.11961917    0.68506535    1.01163481
C     -0.13843631    0.44265338   -0.15173095
C      0.93363923   -0.60631943    0.19351316
C      2.01992769   -0.68989944   -0.88642870
O      3.17227029   -1.34257087   -0.34854689
H      2.33225913    0.30177454   -1.22478826
H      1.68748660   -1.27615935   -1.74948338
H     -1.62697971    2.82116482    1.41148199
O     -2.06678854   -0.36821773    1.13537701
H     -0.59427049    0.79971417    1.96515782
H     -2.41971384   -0.53098300    0.23942923
O      0.35847791   -1.91369090    0.32252220
H      1.39804472   -0.36846700    1.15689950
H     -0.31389088   -1.97738352   -0.38600904
O     -0.86659560   -0.01049053   -1.31028729
H      0.36209417    1.38316413   -0.41443457
H     -1.49946999    0.70121708   -1.54876442
H      2.84436653   -2.15539707    0.08210316