20

O      0.85950183   -3.11328091    1.19612302
C      0.74417738   -1.94537593    0.81633615
C     -0.60142804   -1.32693043    0.47835951
C     -0.60312890   -0.48809930   -0.80717768
C      0.09379025    0.89695308   -0.87579020
C      0.39499170    1.63018427    0.43361730
O      1.50875852    1.03702497    1.08704871
H     -0.46670390    1.66466747    1.10410212
H      0.66335270    2.67111433    0.21833461
H      1.61790250   -1.28196109    0.81010726
O     -1.15285766   -0.60883374    1.57635231
H     -1.27024608   -2.17974865    0.29613037
H     -1.33597399   -1.26955238    2.27010738
O     -0.74066408    1.72469850   -1.71823313
H      1.03527984    0.78446245   -1.42751064
H     -0.39081667    2.63213072   -1.70323619
O     -0.12211584   -1.29659046   -1.90132599
H     -1.66448443   -0.31911504   -1.03633172
H     -0.24835214   -0.76672459   -2.71080693
H      1.67901702    1.55497672    1.89379370