20

O     -2.07828279    2.11181673    0.36404629
C     -0.85933721    2.05584590    0.34305170
C     -0.00590212    1.03368361    1.03327483
C     -0.47892226   -0.39278030    0.75898461
C     -0.43206548   -0.85333317   -0.72874480
C      0.67384422   -1.86405429   -1.05746783
O      1.94964592   -1.25865743   -0.83635658
H      0.62985065   -2.13278437   -2.11810414
H      0.59704856   -2.78213358   -0.46705232
H      1.04456073    1.14644903    0.74268788
O     -0.12730860    2.97656459   -0.31393397
H     -0.04440227    1.24761835    2.10888844
H     -0.79086342    3.50818490   -0.80076222
O     -0.28581390    0.25575817   -1.62411217
H     -1.39575589   -1.31867001   -0.96637231
H      0.67824624    0.36232517   -1.76398883
O      0.29884232   -1.28198557    1.58122293
H     -1.51801486   -0.49411897    1.09792502
H      0.08817502   -1.07903420    2.51133552
H      2.05645518   -1.24069453    0.13547794
20

O     -1.60127110   -2.49990673    1.07020769
C     -2.07597580   -1.67326765    0.31337740
C     -0.04576146    0.14046691    1.54209666
C     -0.08903368   -0.37048867    0.10024004
C      0.44504936    0.64832453   -0.93822657
C      1.96163218    0.57009980   -1.15371735
O      2.67761450    0.93236988    0.02052870
H      2.26185428    1.27375496   -1.93796055
H      2.27058362   -0.43411588   -1.45846303
H     -0.83003143    0.88576257    1.71653946
O     -3.36171902   -1.71325677   -0.06814945
H     -0.23926003   -0.67623347    2.24542244
H     -3.72075827   -2.47601737    0.42545290
O      0.12226548    1.99184608   -0.53935770
H     -0.05181695    0.46881146   -1.89985645
H      0.11586992    2.54023104   -1.34331011
O     -1.47607633   -0.61253471   -0.25601316
H      0.46461615   -1.31261786   -0.00175638
H      0.92097729    0.57092095    1.80844339
H      2.25124129    1.74585089    0.35450205
