20

O     -2.07828279    2.11181673    0.36404629
C     -0.85933721    2.05584590    0.34305170
C     -0.00590212    1.03368361    1.03327483
C     -0.47892226   -0.39278030    0.75898461
C     -0.43206548   -0.85333317   -0.72874480
C      0.67384422   -1.86405429   -1.05746783
O      1.94964592   -1.25865743   -0.83635658
H      0.62985065   -2.13278437   -2.11810414
H      0.59704856   -2.78213358   -0.46705232
H      1.04456073    1.14644903    0.74268788
O     -0.12730860    2.97656459   -0.31393397
H     -0.04440227    1.24761835    2.10888844
H     -0.79086342    3.50818490   -0.80076222
O     -0.28581390    0.25575817   -1.62411217
H     -1.39575589   -1.31867001   -0.96637231
H      0.67824624    0.36232517   -1.76398883
O      0.29884232   -1.28198557    1.58122293
H     -1.51801486   -0.49411897    1.09792502
H      0.08817502   -1.07903420    2.51133552
H      2.05645518   -1.24069453    0.13547794