20

O     -0.40851118    1.66997091   -1.46170868
C     -0.35461692    1.88751061   -0.26227129
C      0.67897448    1.36081018    0.69410317
C      1.03898523   -0.10398234    0.42226049
C     -0.07976971   -1.13362196    0.75185232
C     -0.35681623   -2.15241866   -0.36132495
O     -0.99712433   -1.48836179   -1.45451216
H     -1.06053410   -2.91125103   -0.00441704
H      0.54765400   -2.65758841   -0.71272407
H      1.56418306    1.99675190    0.57773705
O     -1.22144528    2.73830739    0.31638155
H      0.32169087    1.47130545    1.72418461
H     -1.82819824    2.99628332   -0.40888979
O     -1.31582559   -0.47844707    1.07162924
H      0.21971682   -1.67412243    1.65736021
H     -1.86735319   -0.54658302    0.26341042
O      1.54638876   -0.28925992   -0.90547280
H      1.88755710   -0.34988756    1.07346206
H      2.02094782    0.51718943   -1.17720716
H     -0.33590335   -0.85260501   -1.80385316
20

O     -1.74174717    1.67877797   -1.66160629
C     -1.81528436    1.31718795   -0.49695864
C     -0.86359665    1.65988790    0.61019516
C      0.57948442    1.50318928    0.15248723
C      1.05460797   -0.82074443    0.54704142
C      1.63616983   -2.02794391   -0.20507353
O      0.71612602   -2.41557507   -1.23814722
H      1.75939448   -2.88554768    0.46208167
H      2.59113480   -1.78344610   -0.67894206
H     -1.05767691    2.69314163    0.91748714
O     -2.85614016    0.57039728   -0.08115050
H     -1.06702328    1.02486572    1.47675381
H     -3.38184016    0.41623295   -0.89300148
O     -0.19636161   -1.18988015    1.10243321
H      1.73474367   -0.50839030    1.34634313
H     -0.58435701   -1.81750279    0.46235850
O      0.87760667    0.22365624   -0.40608365
H      1.27138319    1.72374615    0.97389060
H      0.78629088    2.23664429   -0.63544144
H      0.55708537   -1.59869693   -1.75466707
