20

O     -0.40851118    1.66997091   -1.46170868
C     -0.35461692    1.88751061   -0.26227129
C      0.67897448    1.36081018    0.69410317
C      1.03898523   -0.10398234    0.42226049
C     -0.07976971   -1.13362196    0.75185232
C     -0.35681623   -2.15241866   -0.36132495
O     -0.99712433   -1.48836179   -1.45451216
H     -1.06053410   -2.91125103   -0.00441704
H      0.54765400   -2.65758841   -0.71272407
H      1.56418306    1.99675190    0.57773705
O     -1.22144528    2.73830739    0.31638155
H      0.32169087    1.47130545    1.72418461
H     -1.82819824    2.99628332   -0.40888979
O     -1.31582559   -0.47844707    1.07162924
H      0.21971682   -1.67412243    1.65736021
H     -1.86735319   -0.54658302    0.26341042
O      1.54638876   -0.28925992   -0.90547280
H      1.88755710   -0.34988756    1.07346206
H      2.02094782    0.51718943   -1.17720716
H     -0.33590335   -0.85260501   -1.80385316