9

C     -0.83669404   -0.32881898   -0.09776037
C      0.40278288    0.53907349   -0.16472564
H     -1.73447860    0.25603988   -0.31637992
H     -0.94179708   -0.77755233    0.89549367
H     -0.76840704   -1.15397262   -0.81425798
O      1.55791123   -0.24330818    0.10072015
H      0.35313717    1.35144401    0.56662759
H      0.50952643    0.97784240   -1.16103532
H      1.45801903   -0.62074767    0.99131783
9

C     -0.38356694   -0.54216609    0.07081088
C      0.38356688    0.54216621   -0.07081027
H      1.93009960   -2.41217508    0.45812638
H     -0.78702222   -0.81993875    1.03950021
H     -0.62318880   -1.17337375   -0.77916033
O      2.39838443   -1.57639429    0.60352510
H      0.62318971    1.17337490    0.77915986
H      0.78702137    0.81993747   -1.03950036
H      2.13892853   -1.31560691    1.49998122
